*SPEF "ieee 1481-1999"
*DESIGN "wb_bridge_2way"
*DATE "11:11:11 Fri 11 11, 1111"
*VENDOR "OpenRCX"
*PROGRAM "Parallel Extraction"
*VERSION "1.0"
*DESIGN_FLOW "NAME_SCOPE LOCAL" "PIN_CAP NONE"
*DIVIDER /
*DELIMITER :
*BUS_DELIMITER []
*T_UNIT 1 NS
*C_UNIT 1 PF
*R_UNIT 1 OHM
*L_UNIT 1 HENRY

*NAME_MAP
*3 wb_clk_i
*4 wb_rst_i
*5 wbm_a_ack_i
*6 wbm_a_adr_o[0]
*7 wbm_a_adr_o[10]
*8 wbm_a_adr_o[11]
*9 wbm_a_adr_o[12]
*10 wbm_a_adr_o[13]
*11 wbm_a_adr_o[14]
*12 wbm_a_adr_o[15]
*13 wbm_a_adr_o[16]
*14 wbm_a_adr_o[17]
*15 wbm_a_adr_o[18]
*16 wbm_a_adr_o[19]
*17 wbm_a_adr_o[1]
*18 net280
*19 net281
*20 net282
*21 net283
*22 net284
*23 net285
*24 net286
*25 net287
*26 net290
*27 net291
*28 wbm_a_adr_o[2]
*29 net288
*30 net289
*31 wbm_a_adr_o[3]
*32 wbm_a_adr_o[4]
*33 wbm_a_adr_o[5]
*34 wbm_a_adr_o[6]
*35 wbm_a_adr_o[7]
*36 wbm_a_adr_o[8]
*37 wbm_a_adr_o[9]
*38 wbm_a_cyc_o
*39 wbm_a_dat_i[0]
*40 wbm_a_dat_i[10]
*41 wbm_a_dat_i[11]
*42 wbm_a_dat_i[12]
*43 wbm_a_dat_i[13]
*44 wbm_a_dat_i[14]
*45 wbm_a_dat_i[15]
*46 wbm_a_dat_i[16]
*47 wbm_a_dat_i[17]
*48 wbm_a_dat_i[18]
*49 wbm_a_dat_i[19]
*50 wbm_a_dat_i[1]
*51 wbm_a_dat_i[20]
*52 wbm_a_dat_i[21]
*53 wbm_a_dat_i[22]
*54 wbm_a_dat_i[23]
*55 wbm_a_dat_i[24]
*56 wbm_a_dat_i[25]
*57 wbm_a_dat_i[26]
*58 wbm_a_dat_i[27]
*59 wbm_a_dat_i[28]
*60 wbm_a_dat_i[29]
*61 wbm_a_dat_i[2]
*62 wbm_a_dat_i[30]
*63 wbm_a_dat_i[31]
*64 wbm_a_dat_i[3]
*65 wbm_a_dat_i[4]
*66 wbm_a_dat_i[5]
*67 wbm_a_dat_i[6]
*68 wbm_a_dat_i[7]
*69 wbm_a_dat_i[8]
*70 wbm_a_dat_i[9]
*71 wbm_a_dat_o[0]
*72 wbm_a_dat_o[10]
*73 wbm_a_dat_o[11]
*74 wbm_a_dat_o[12]
*75 wbm_a_dat_o[13]
*76 wbm_a_dat_o[14]
*77 wbm_a_dat_o[15]
*78 wbm_a_dat_o[16]
*79 wbm_a_dat_o[17]
*80 wbm_a_dat_o[18]
*81 wbm_a_dat_o[19]
*82 wbm_a_dat_o[1]
*83 wbm_a_dat_o[20]
*84 wbm_a_dat_o[21]
*85 wbm_a_dat_o[22]
*86 wbm_a_dat_o[23]
*87 wbm_a_dat_o[24]
*88 wbm_a_dat_o[25]
*89 wbm_a_dat_o[26]
*90 wbm_a_dat_o[27]
*91 wbm_a_dat_o[28]
*92 wbm_a_dat_o[29]
*93 wbm_a_dat_o[2]
*94 wbm_a_dat_o[30]
*95 wbm_a_dat_o[31]
*96 wbm_a_dat_o[3]
*97 wbm_a_dat_o[4]
*98 wbm_a_dat_o[5]
*99 wbm_a_dat_o[6]
*100 wbm_a_dat_o[7]
*101 wbm_a_dat_o[8]
*102 wbm_a_dat_o[9]
*103 wbm_a_sel_o[0]
*104 wbm_a_sel_o[1]
*105 wbm_a_sel_o[2]
*106 wbm_a_sel_o[3]
*107 wbm_a_stb_o
*108 wbm_a_we_o
*109 wbm_b_ack_i
*110 wbm_b_adr_o[0]
*111 wbm_b_adr_o[10]
*112 wbm_b_adr_o[1]
*113 wbm_b_adr_o[2]
*114 wbm_b_adr_o[3]
*115 wbm_b_adr_o[4]
*116 wbm_b_adr_o[5]
*117 wbm_b_adr_o[6]
*118 wbm_b_adr_o[7]
*119 wbm_b_adr_o[8]
*120 wbm_b_adr_o[9]
*121 wbm_b_cyc_o
*122 wbm_b_dat_i[0]
*123 wbm_b_dat_i[10]
*124 wbm_b_dat_i[11]
*125 wbm_b_dat_i[12]
*126 wbm_b_dat_i[13]
*127 wbm_b_dat_i[14]
*128 wbm_b_dat_i[15]
*129 wbm_b_dat_i[16]
*130 wbm_b_dat_i[17]
*131 wbm_b_dat_i[18]
*132 wbm_b_dat_i[19]
*133 wbm_b_dat_i[1]
*134 wbm_b_dat_i[20]
*135 wbm_b_dat_i[21]
*136 wbm_b_dat_i[22]
*137 wbm_b_dat_i[23]
*138 wbm_b_dat_i[24]
*139 wbm_b_dat_i[25]
*140 wbm_b_dat_i[26]
*141 wbm_b_dat_i[27]
*142 wbm_b_dat_i[28]
*143 wbm_b_dat_i[29]
*144 wbm_b_dat_i[2]
*145 wbm_b_dat_i[30]
*146 wbm_b_dat_i[31]
*147 wbm_b_dat_i[3]
*148 wbm_b_dat_i[4]
*149 wbm_b_dat_i[5]
*150 wbm_b_dat_i[6]
*151 wbm_b_dat_i[7]
*152 wbm_b_dat_i[8]
*153 wbm_b_dat_i[9]
*154 wbm_b_dat_o[0]
*155 wbm_b_dat_o[10]
*156 wbm_b_dat_o[11]
*157 wbm_b_dat_o[12]
*158 wbm_b_dat_o[13]
*159 wbm_b_dat_o[14]
*160 wbm_b_dat_o[15]
*161 wbm_b_dat_o[16]
*162 wbm_b_dat_o[17]
*163 wbm_b_dat_o[18]
*164 wbm_b_dat_o[19]
*165 wbm_b_dat_o[1]
*166 wbm_b_dat_o[20]
*167 wbm_b_dat_o[21]
*168 wbm_b_dat_o[22]
*169 wbm_b_dat_o[23]
*170 wbm_b_dat_o[24]
*171 wbm_b_dat_o[25]
*172 wbm_b_dat_o[26]
*173 wbm_b_dat_o[27]
*174 wbm_b_dat_o[28]
*175 wbm_b_dat_o[29]
*176 wbm_b_dat_o[2]
*177 wbm_b_dat_o[30]
*178 wbm_b_dat_o[31]
*179 wbm_b_dat_o[3]
*180 wbm_b_dat_o[4]
*181 wbm_b_dat_o[5]
*182 wbm_b_dat_o[6]
*183 wbm_b_dat_o[7]
*184 wbm_b_dat_o[8]
*185 wbm_b_dat_o[9]
*186 wbm_b_sel_o[0]
*187 wbm_b_sel_o[1]
*188 wbm_b_sel_o[2]
*189 wbm_b_sel_o[3]
*190 wbm_b_stb_o
*191 wbm_b_we_o
*192 wbs_ack_o
*193 wbs_adr_i[0]
*194 wbs_adr_i[10]
*195 wbs_adr_i[11]
*196 wbs_adr_i[12]
*197 wbs_adr_i[13]
*198 wbs_adr_i[14]
*199 wbs_adr_i[15]
*200 wbs_adr_i[16]
*201 wbs_adr_i[17]
*202 wbs_adr_i[18]
*203 wbs_adr_i[19]
*204 wbs_adr_i[1]
*205 wbs_adr_i[20]
*206 wbs_adr_i[21]
*207 wbs_adr_i[22]
*208 wbs_adr_i[23]
*209 wbs_adr_i[24]
*210 wbs_adr_i[25]
*211 wbs_adr_i[26]
*212 wbs_adr_i[27]
*213 wbs_adr_i[28]
*214 wbs_adr_i[29]
*215 wbs_adr_i[2]
*216 wbs_adr_i[30]
*217 wbs_adr_i[31]
*218 wbs_adr_i[3]
*219 wbs_adr_i[4]
*220 wbs_adr_i[5]
*221 wbs_adr_i[6]
*222 wbs_adr_i[7]
*223 wbs_adr_i[8]
*224 wbs_adr_i[9]
*225 wbs_cyc_i
*226 wbs_dat_i[0]
*227 wbs_dat_i[10]
*228 wbs_dat_i[11]
*229 wbs_dat_i[12]
*230 wbs_dat_i[13]
*231 wbs_dat_i[14]
*232 wbs_dat_i[15]
*233 wbs_dat_i[16]
*234 wbs_dat_i[17]
*235 wbs_dat_i[18]
*236 wbs_dat_i[19]
*237 wbs_dat_i[1]
*238 wbs_dat_i[20]
*239 wbs_dat_i[21]
*240 wbs_dat_i[22]
*241 wbs_dat_i[23]
*242 wbs_dat_i[24]
*243 wbs_dat_i[25]
*244 wbs_dat_i[26]
*245 wbs_dat_i[27]
*246 wbs_dat_i[28]
*247 wbs_dat_i[29]
*248 wbs_dat_i[2]
*249 wbs_dat_i[30]
*250 wbs_dat_i[31]
*251 wbs_dat_i[3]
*252 wbs_dat_i[4]
*253 wbs_dat_i[5]
*254 wbs_dat_i[6]
*255 wbs_dat_i[7]
*256 wbs_dat_i[8]
*257 wbs_dat_i[9]
*258 wbs_dat_o[0]
*259 wbs_dat_o[10]
*260 wbs_dat_o[11]
*261 wbs_dat_o[12]
*262 wbs_dat_o[13]
*263 wbs_dat_o[14]
*264 wbs_dat_o[15]
*265 wbs_dat_o[16]
*266 wbs_dat_o[17]
*267 wbs_dat_o[18]
*268 wbs_dat_o[19]
*269 wbs_dat_o[1]
*270 wbs_dat_o[20]
*271 wbs_dat_o[21]
*272 wbs_dat_o[22]
*273 wbs_dat_o[23]
*274 wbs_dat_o[24]
*275 wbs_dat_o[25]
*276 wbs_dat_o[26]
*277 wbs_dat_o[27]
*278 wbs_dat_o[28]
*279 wbs_dat_o[29]
*280 wbs_dat_o[2]
*281 wbs_dat_o[30]
*282 wbs_dat_o[31]
*283 wbs_dat_o[3]
*284 wbs_dat_o[4]
*285 wbs_dat_o[5]
*286 wbs_dat_o[6]
*287 wbs_dat_o[7]
*288 wbs_dat_o[8]
*289 wbs_dat_o[9]
*290 wbs_sel_i[0]
*291 wbs_sel_i[1]
*292 wbs_sel_i[2]
*293 wbs_sel_i[3]
*294 wbs_stb_i
*295 wbs_we_i
*296 _000_
*297 _001_
*298 _002_
*299 _003_
*300 _004_
*301 _005_
*302 _006_
*303 _007_
*304 _008_
*305 _009_
*306 _010_
*307 _011_
*308 _012_
*309 _013_
*310 _014_
*311 _015_
*312 _016_
*313 _017_
*314 _018_
*315 _019_
*316 _020_
*317 _021_
*318 _022_
*319 _023_
*320 _024_
*321 _025_
*322 _026_
*323 _027_
*324 _028_
*325 _029_
*326 _030_
*327 _031_
*328 _032_
*329 _033_
*330 _034_
*331 _035_
*332 _036_
*333 _037_
*334 _038_
*335 _039_
*336 _040_
*337 _041_
*338 _042_
*339 _043_
*340 _044_
*341 _045_
*342 _046_
*343 _047_
*344 _048_
*345 _049_
*346 _050_
*347 _051_
*348 _052_
*349 _053_
*350 _054_
*351 _055_
*352 _056_
*353 _057_
*354 _058_
*355 _059_
*356 _060_
*357 _061_
*358 _062_
*359 _063_
*360 _064_
*361 _065_
*362 _066_
*363 _067_
*364 _068_
*365 _069_
*366 _070_
*367 _071_
*368 _072_
*369 _073_
*370 _074_
*371 _075_
*372 _076_
*373 _077_
*374 _078_
*375 _079_
*376 _080_
*377 _081_
*378 _082_
*379 _083_
*380 _084_
*381 _085_
*382 _086_
*383 _087_
*384 _088_
*385 _089_
*386 _090_
*387 _091_
*388 _092_
*389 _093_
*390 net1
*391 net10
*392 net100
*393 net101
*394 net102
*395 net103
*396 net104
*397 net105
*398 net106
*399 net107
*400 net108
*401 net109
*402 net11
*403 net110
*404 net111
*405 net112
*406 net113
*407 net114
*408 net115
*409 net116
*410 net117
*411 net118
*412 net119
*413 net12
*414 net120
*415 net121
*416 net122
*417 net123
*418 net124
*419 net125
*420 net126
*421 net127
*422 net128
*423 net129
*424 net13
*425 net130
*426 net131
*427 net132
*428 net133
*429 net134
*430 net135
*431 net136
*432 net137
*433 net138
*434 net139
*435 net14
*436 net140
*437 net141
*438 net142
*439 net143
*440 net144
*441 net145
*442 net146
*443 net147
*444 net148
*445 net149
*446 net15
*447 net150
*448 net151
*449 net152
*450 net153
*451 net154
*452 net155
*453 net156
*454 net157
*455 net158
*456 net159
*457 net16
*458 net160
*459 net161
*460 net162
*461 net163
*462 net164
*463 net165
*464 net166
*465 net167
*466 net168
*467 net169
*468 net17
*469 net170
*470 net171
*471 net172
*472 net173
*473 net174
*474 net175
*475 net176
*476 net177
*477 net178
*478 net179
*479 net18
*480 net180
*481 net181
*482 net182
*483 net183
*484 net184
*485 net185
*486 net186
*487 net187
*488 net188
*489 net189
*490 net19
*491 net190
*492 net191
*493 net192
*494 net193
*495 net194
*496 net195
*497 net196
*498 net197
*499 net198
*500 net199
*501 net2
*502 net20
*503 net200
*504 net201
*505 net202
*506 net203
*507 net204
*508 net205
*509 net206
*510 net207
*511 net208
*512 net209
*513 net21
*514 net210
*515 net211
*516 net212
*517 net213
*518 net214
*519 net215
*520 net216
*521 net217
*522 net218
*523 net219
*524 net22
*525 net220
*526 net221
*527 net222
*528 net223
*529 net224
*530 net225
*531 net226
*532 net227
*533 net228
*534 net229
*535 net23
*536 net230
*537 net231
*538 net232
*539 net233
*540 net234
*541 net235
*542 net236
*543 net237
*544 net238
*545 net239
*546 net24
*547 net240
*548 net241
*549 net242
*550 net243
*551 net244
*552 net245
*553 net246
*554 net247
*555 net248
*556 net249
*557 net25
*558 net250
*559 net251
*560 net252
*561 net253
*562 net254
*563 net255
*564 net256
*565 net257
*566 net258
*567 net259
*568 net26
*569 net260
*570 net261
*571 net262
*572 net263
*573 net264
*574 net265
*575 net266
*576 net267
*577 net268
*578 net269
*579 net27
*580 net270
*581 net271
*582 net272
*583 net273
*584 net274
*585 net275
*586 net276
*587 net277
*588 net278
*589 net279
*590 net28
*591 net29
*592 net3
*593 net30
*594 net31
*595 net32
*596 net33
*597 net34
*598 net35
*599 net36
*600 net37
*601 net38
*602 net39
*603 net4
*604 net40
*605 net41
*606 net42
*607 net43
*608 net44
*609 net45
*610 net46
*611 net47
*612 net48
*613 net49
*614 net5
*615 net50
*616 net51
*617 net52
*618 net53
*619 net54
*620 net55
*621 net56
*622 net57
*623 net58
*624 net59
*625 net6
*626 net60
*627 net61
*628 net62
*629 net63
*630 net64
*631 net65
*632 net66
*633 net67
*634 net68
*635 net69
*636 net7
*637 net70
*638 net71
*639 net72
*640 net73
*641 net74
*642 net75
*643 net76
*644 net77
*645 net78
*646 net79
*647 net8
*648 net80
*649 net81
*650 net82
*651 net83
*652 net84
*653 net85
*654 net86
*655 net87
*656 net88
*657 net89
*658 net9
*659 net90
*660 net91
*661 net92
*662 net93
*663 net94
*664 net95
*665 net96
*666 net97
*667 net98
*668 net99
*669 ANTENNA_0
*670 FILLER_0_13
*671 FILLER_0_20
*672 FILLER_0_32
*673 FILLER_0_39
*674 FILLER_0_51
*675 FILLER_0_55
*676 FILLER_0_57
*677 FILLER_0_6
*678 FILLER_0_69
*679 FILLER_0_81
*680 FILLER_0_85
*681 FILLER_0_91
*682 FILLER_0_99
*683 FILLER_100_11
*684 FILLER_100_15
*685 FILLER_100_21
*686 FILLER_100_27
*687 FILLER_100_32
*688 FILLER_100_44
*689 FILLER_100_56
*690 FILLER_100_68
*691 FILLER_100_80
*692 FILLER_100_85
*693 FILLER_100_99
*694 FILLER_101_15
*695 FILLER_101_23
*696 FILLER_101_30
*697 FILLER_101_42
*698 FILLER_101_54
*699 FILLER_101_57
*700 FILLER_101_69
*701 FILLER_101_7
*702 FILLER_101_81
*703 FILLER_101_99
*704 FILLER_102_11
*705 FILLER_102_23
*706 FILLER_102_27
*707 FILLER_102_29
*708 FILLER_102_41
*709 FILLER_102_53
*710 FILLER_102_65
*711 FILLER_102_77
*712 FILLER_102_83
*713 FILLER_102_85
*714 FILLER_102_97
*715 FILLER_103_16
*716 FILLER_103_28
*717 FILLER_103_3
*718 FILLER_103_40
*719 FILLER_103_52
*720 FILLER_103_57
*721 FILLER_103_69
*722 FILLER_103_7
*723 FILLER_103_81
*724 FILLER_103_93
*725 FILLER_103_99
*726 FILLER_104_15
*727 FILLER_104_23
*728 FILLER_104_27
*729 FILLER_104_29
*730 FILLER_104_41
*731 FILLER_104_53
*732 FILLER_104_65
*733 FILLER_104_7
*734 FILLER_104_77
*735 FILLER_104_83
*736 FILLER_104_85
*737 FILLER_104_93
*738 FILLER_104_99
*739 FILLER_105_19
*740 FILLER_105_31
*741 FILLER_105_43
*742 FILLER_105_55
*743 FILLER_105_57
*744 FILLER_105_69
*745 FILLER_105_7
*746 FILLER_105_81
*747 FILLER_105_99
*748 FILLER_106_15
*749 FILLER_106_22
*750 FILLER_106_29
*751 FILLER_106_41
*752 FILLER_106_53
*753 FILLER_106_65
*754 FILLER_106_7
*755 FILLER_106_77
*756 FILLER_106_83
*757 FILLER_106_85
*758 FILLER_106_97
*759 FILLER_107_11
*760 FILLER_107_19
*761 FILLER_107_31
*762 FILLER_107_43
*763 FILLER_107_55
*764 FILLER_107_57
*765 FILLER_107_69
*766 FILLER_107_81
*767 FILLER_107_93
*768 FILLER_107_99
*769 FILLER_108_15
*770 FILLER_108_27
*771 FILLER_108_29
*772 FILLER_108_41
*773 FILLER_108_53
*774 FILLER_108_65
*775 FILLER_108_7
*776 FILLER_108_77
*777 FILLER_108_83
*778 FILLER_108_85
*779 FILLER_108_93
*780 FILLER_108_99
*781 FILLER_109_101
*782 FILLER_109_11
*783 FILLER_109_23
*784 FILLER_109_35
*785 FILLER_109_47
*786 FILLER_109_55
*787 FILLER_109_57
*788 FILLER_109_69
*789 FILLER_109_81
*790 FILLER_109_93
*791 FILLER_10_13
*792 FILLER_10_21
*793 FILLER_10_27
*794 FILLER_10_32
*795 FILLER_10_44
*796 FILLER_10_56
*797 FILLER_10_68
*798 FILLER_10_80
*799 FILLER_10_85
*800 FILLER_10_97
*801 FILLER_110_15
*802 FILLER_110_23
*803 FILLER_110_27
*804 FILLER_110_29
*805 FILLER_110_41
*806 FILLER_110_53
*807 FILLER_110_65
*808 FILLER_110_7
*809 FILLER_110_77
*810 FILLER_110_83
*811 FILLER_110_85
*812 FILLER_110_93
*813 FILLER_110_99
*814 FILLER_111_11
*815 FILLER_111_22
*816 FILLER_111_30
*817 FILLER_111_42
*818 FILLER_111_54
*819 FILLER_111_57
*820 FILLER_111_69
*821 FILLER_111_81
*822 FILLER_111_93
*823 FILLER_111_99
*824 FILLER_112_17
*825 FILLER_112_25
*826 FILLER_112_3
*827 FILLER_112_33
*828 FILLER_112_45
*829 FILLER_112_57
*830 FILLER_112_69
*831 FILLER_112_81
*832 FILLER_112_85
*833 FILLER_112_99
*834 FILLER_113_101
*835 FILLER_113_17
*836 FILLER_113_29
*837 FILLER_113_3
*838 FILLER_113_41
*839 FILLER_113_53
*840 FILLER_113_57
*841 FILLER_113_69
*842 FILLER_113_81
*843 FILLER_113_93
*844 FILLER_114_17
*845 FILLER_114_25
*846 FILLER_114_29
*847 FILLER_114_3
*848 FILLER_114_41
*849 FILLER_114_53
*850 FILLER_114_65
*851 FILLER_114_77
*852 FILLER_114_83
*853 FILLER_114_85
*854 FILLER_114_93
*855 FILLER_114_99
*856 FILLER_115_15
*857 FILLER_115_23
*858 FILLER_115_31
*859 FILLER_115_43
*860 FILLER_115_55
*861 FILLER_115_57
*862 FILLER_115_69
*863 FILLER_115_7
*864 FILLER_115_81
*865 FILLER_115_93
*866 FILLER_115_99
*867 FILLER_116_13
*868 FILLER_116_23
*869 FILLER_116_27
*870 FILLER_116_33
*871 FILLER_116_45
*872 FILLER_116_57
*873 FILLER_116_69
*874 FILLER_116_81
*875 FILLER_116_85
*876 FILLER_116_97
*877 FILLER_117_13
*878 FILLER_117_25
*879 FILLER_117_37
*880 FILLER_117_49
*881 FILLER_117_55
*882 FILLER_117_57
*883 FILLER_117_69
*884 FILLER_117_81
*885 FILLER_117_93
*886 FILLER_117_99
*887 FILLER_118_13
*888 FILLER_118_17
*889 FILLER_118_24
*890 FILLER_118_29
*891 FILLER_118_41
*892 FILLER_118_53
*893 FILLER_118_65
*894 FILLER_118_77
*895 FILLER_118_83
*896 FILLER_118_85
*897 FILLER_118_93
*898 FILLER_118_99
*899 FILLER_119_13
*900 FILLER_119_25
*901 FILLER_119_37
*902 FILLER_119_49
*903 FILLER_119_55
*904 FILLER_119_57
*905 FILLER_119_69
*906 FILLER_119_81
*907 FILLER_119_93
*908 FILLER_119_99
*909 FILLER_11_13
*910 FILLER_11_21
*911 FILLER_11_33
*912 FILLER_11_45
*913 FILLER_11_53
*914 FILLER_11_57
*915 FILLER_11_69
*916 FILLER_11_81
*917 FILLER_11_93
*918 FILLER_11_99
*919 FILLER_120_20
*920 FILLER_120_29
*921 FILLER_120_41
*922 FILLER_120_53
*923 FILLER_120_6
*924 FILLER_120_65
*925 FILLER_120_77
*926 FILLER_120_83
*927 FILLER_120_85
*928 FILLER_120_97
*929 FILLER_121_11
*930 FILLER_121_18
*931 FILLER_121_30
*932 FILLER_121_42
*933 FILLER_121_54
*934 FILLER_121_57
*935 FILLER_121_69
*936 FILLER_121_81
*937 FILLER_121_93
*938 FILLER_121_99
*939 FILLER_122_11
*940 FILLER_122_18
*941 FILLER_122_26
*942 FILLER_122_29
*943 FILLER_122_41
*944 FILLER_122_53
*945 FILLER_122_65
*946 FILLER_122_77
*947 FILLER_122_83
*948 FILLER_122_85
*949 FILLER_122_93
*950 FILLER_122_99
*951 FILLER_123_101
*952 FILLER_123_13
*953 FILLER_123_25
*954 FILLER_123_37
*955 FILLER_123_49
*956 FILLER_123_55
*957 FILLER_123_57
*958 FILLER_123_6
*959 FILLER_123_69
*960 FILLER_123_81
*961 FILLER_123_93
*962 FILLER_124_13
*963 FILLER_124_25
*964 FILLER_124_29
*965 FILLER_124_41
*966 FILLER_124_53
*967 FILLER_124_6
*968 FILLER_124_65
*969 FILLER_124_77
*970 FILLER_124_83
*971 FILLER_124_85
*972 FILLER_124_93
*973 FILLER_124_99
*974 FILLER_125_11
*975 FILLER_125_23
*976 FILLER_125_35
*977 FILLER_125_47
*978 FILLER_125_55
*979 FILLER_125_57
*980 FILLER_125_69
*981 FILLER_125_81
*982 FILLER_125_93
*983 FILLER_125_99
*984 FILLER_126_13
*985 FILLER_126_25
*986 FILLER_126_29
*987 FILLER_126_41
*988 FILLER_126_53
*989 FILLER_126_6
*990 FILLER_126_65
*991 FILLER_126_77
*992 FILLER_126_83
*993 FILLER_126_85
*994 FILLER_126_97
*995 FILLER_127_11
*996 FILLER_127_23
*997 FILLER_127_35
*998 FILLER_127_47
*999 FILLER_127_55
*1000 FILLER_127_57
*1001 FILLER_127_69
*1002 FILLER_127_81
*1003 FILLER_127_93
*1004 FILLER_127_99
*1005 FILLER_128_18
*1006 FILLER_128_26
*1007 FILLER_128_29
*1008 FILLER_128_41
*1009 FILLER_128_53
*1010 FILLER_128_6
*1011 FILLER_128_65
*1012 FILLER_128_77
*1013 FILLER_128_83
*1014 FILLER_128_85
*1015 FILLER_128_93
*1016 FILLER_128_99
*1017 FILLER_129_13
*1018 FILLER_129_20
*1019 FILLER_129_32
*1020 FILLER_129_44
*1021 FILLER_129_57
*1022 FILLER_129_6
*1023 FILLER_129_69
*1024 FILLER_129_81
*1025 FILLER_129_93
*1026 FILLER_129_99
*1027 FILLER_12_13
*1028 FILLER_12_24
*1029 FILLER_12_32
*1030 FILLER_12_44
*1031 FILLER_12_56
*1032 FILLER_12_68
*1033 FILLER_12_80
*1034 FILLER_12_85
*1035 FILLER_12_93
*1036 FILLER_12_99
*1037 FILLER_130_11
*1038 FILLER_130_23
*1039 FILLER_130_27
*1040 FILLER_130_29
*1041 FILLER_130_41
*1042 FILLER_130_53
*1043 FILLER_130_65
*1044 FILLER_130_77
*1045 FILLER_130_83
*1046 FILLER_130_85
*1047 FILLER_130_97
*1048 FILLER_131_13
*1049 FILLER_131_25
*1050 FILLER_131_37
*1051 FILLER_131_49
*1052 FILLER_131_55
*1053 FILLER_131_57
*1054 FILLER_131_6
*1055 FILLER_131_69
*1056 FILLER_131_81
*1057 FILLER_131_93
*1058 FILLER_131_99
*1059 FILLER_132_17
*1060 FILLER_132_24
*1061 FILLER_132_29
*1062 FILLER_132_3
*1063 FILLER_132_41
*1064 FILLER_132_53
*1065 FILLER_132_65
*1066 FILLER_132_77
*1067 FILLER_132_83
*1068 FILLER_132_85
*1069 FILLER_132_93
*1070 FILLER_132_99
*1071 FILLER_133_101
*1072 FILLER_133_11
*1073 FILLER_133_18
*1074 FILLER_133_30
*1075 FILLER_133_42
*1076 FILLER_133_54
*1077 FILLER_133_57
*1078 FILLER_133_69
*1079 FILLER_133_81
*1080 FILLER_133_93
*1081 FILLER_134_17
*1082 FILLER_134_24
*1083 FILLER_134_29
*1084 FILLER_134_3
*1085 FILLER_134_41
*1086 FILLER_134_53
*1087 FILLER_134_65
*1088 FILLER_134_77
*1089 FILLER_134_83
*1090 FILLER_134_85
*1091 FILLER_134_93
*1092 FILLER_134_99
*1093 FILLER_135_12
*1094 FILLER_135_21
*1095 FILLER_135_28
*1096 FILLER_135_40
*1097 FILLER_135_52
*1098 FILLER_135_57
*1099 FILLER_135_6
*1100 FILLER_135_69
*1101 FILLER_135_81
*1102 FILLER_135_93
*1103 FILLER_135_99
*1104 FILLER_136_11
*1105 FILLER_136_23
*1106 FILLER_136_27
*1107 FILLER_136_29
*1108 FILLER_136_41
*1109 FILLER_136_53
*1110 FILLER_136_65
*1111 FILLER_136_77
*1112 FILLER_136_83
*1113 FILLER_136_85
*1114 FILLER_136_93
*1115 FILLER_136_99
*1116 FILLER_137_14
*1117 FILLER_137_21
*1118 FILLER_137_28
*1119 FILLER_137_35
*1120 FILLER_137_47
*1121 FILLER_137_55
*1122 FILLER_137_57
*1123 FILLER_137_69
*1124 FILLER_137_7
*1125 FILLER_137_81
*1126 FILLER_137_87
*1127 FILLER_137_91
*1128 FILLER_137_99
*1129 FILLER_138_13
*1130 FILLER_138_20
*1131 FILLER_138_32
*1132 FILLER_138_39
*1133 FILLER_138_51
*1134 FILLER_138_55
*1135 FILLER_138_57
*1136 FILLER_138_69
*1137 FILLER_138_81
*1138 FILLER_138_85
*1139 FILLER_138_91
*1140 FILLER_138_99
*1141 FILLER_13_13
*1142 FILLER_13_21
*1143 FILLER_13_28
*1144 FILLER_13_35
*1145 FILLER_13_47
*1146 FILLER_13_55
*1147 FILLER_13_57
*1148 FILLER_13_69
*1149 FILLER_13_81
*1150 FILLER_13_93
*1151 FILLER_13_99
*1152 FILLER_14_13
*1153 FILLER_14_21
*1154 FILLER_14_27
*1155 FILLER_14_33
*1156 FILLER_14_45
*1157 FILLER_14_57
*1158 FILLER_14_69
*1159 FILLER_14_81
*1160 FILLER_14_85
*1161 FILLER_14_97
*1162 FILLER_15_13
*1163 FILLER_15_21
*1164 FILLER_15_28
*1165 FILLER_15_40
*1166 FILLER_15_52
*1167 FILLER_15_57
*1168 FILLER_15_69
*1169 FILLER_15_81
*1170 FILLER_15_93
*1171 FILLER_15_99
*1172 FILLER_16_13
*1173 FILLER_16_22
*1174 FILLER_16_29
*1175 FILLER_16_41
*1176 FILLER_16_53
*1177 FILLER_16_65
*1178 FILLER_16_77
*1179 FILLER_16_83
*1180 FILLER_16_85
*1181 FILLER_16_93
*1182 FILLER_16_99
*1183 FILLER_17_13
*1184 FILLER_17_22
*1185 FILLER_17_29
*1186 FILLER_17_41
*1187 FILLER_17_53
*1188 FILLER_17_57
*1189 FILLER_17_69
*1190 FILLER_17_81
*1191 FILLER_17_93
*1192 FILLER_17_99
*1193 FILLER_18_13
*1194 FILLER_18_20
*1195 FILLER_18_29
*1196 FILLER_18_41
*1197 FILLER_18_53
*1198 FILLER_18_65
*1199 FILLER_18_77
*1200 FILLER_18_83
*1201 FILLER_18_85
*1202 FILLER_18_93
*1203 FILLER_18_99
*1204 FILLER_19_22
*1205 FILLER_19_29
*1206 FILLER_19_41
*1207 FILLER_19_53
*1208 FILLER_19_57
*1209 FILLER_19_69
*1210 FILLER_19_81
*1211 FILLER_19_9
*1212 FILLER_19_93
*1213 FILLER_19_99
*1214 FILLER_1_13
*1215 FILLER_1_20
*1216 FILLER_1_27
*1217 FILLER_1_39
*1218 FILLER_1_51
*1219 FILLER_1_55
*1220 FILLER_1_57
*1221 FILLER_1_6
*1222 FILLER_1_69
*1223 FILLER_1_81
*1224 FILLER_1_91
*1225 FILLER_1_99
*1226 FILLER_20_14
*1227 FILLER_20_22
*1228 FILLER_20_32
*1229 FILLER_20_44
*1230 FILLER_20_56
*1231 FILLER_20_6
*1232 FILLER_20_68
*1233 FILLER_20_80
*1234 FILLER_20_85
*1235 FILLER_20_92
*1236 FILLER_20_99
*1237 FILLER_21_14
*1238 FILLER_21_19
*1239 FILLER_21_26
*1240 FILLER_21_38
*1241 FILLER_21_50
*1242 FILLER_21_57
*1243 FILLER_21_6
*1244 FILLER_21_69
*1245 FILLER_21_81
*1246 FILLER_21_87
*1247 FILLER_21_91
*1248 FILLER_21_99
*1249 FILLER_22_18
*1250 FILLER_22_26
*1251 FILLER_22_32
*1252 FILLER_22_44
*1253 FILLER_22_56
*1254 FILLER_22_68
*1255 FILLER_22_80
*1256 FILLER_22_85
*1257 FILLER_22_9
*1258 FILLER_22_93
*1259 FILLER_22_99
*1260 FILLER_23_12
*1261 FILLER_23_19
*1262 FILLER_23_3
*1263 FILLER_23_31
*1264 FILLER_23_43
*1265 FILLER_23_55
*1266 FILLER_23_57
*1267 FILLER_23_69
*1268 FILLER_23_7
*1269 FILLER_23_81
*1270 FILLER_23_93
*1271 FILLER_23_99
*1272 FILLER_24_12
*1273 FILLER_24_20
*1274 FILLER_24_29
*1275 FILLER_24_41
*1276 FILLER_24_53
*1277 FILLER_24_65
*1278 FILLER_24_77
*1279 FILLER_24_83
*1280 FILLER_24_85
*1281 FILLER_24_93
*1282 FILLER_24_99
*1283 FILLER_25_13
*1284 FILLER_25_20
*1285 FILLER_25_32
*1286 FILLER_25_44
*1287 FILLER_25_57
*1288 FILLER_25_6
*1289 FILLER_25_69
*1290 FILLER_25_81
*1291 FILLER_25_87
*1292 FILLER_25_91
*1293 FILLER_25_99
*1294 FILLER_26_15
*1295 FILLER_26_22
*1296 FILLER_26_32
*1297 FILLER_26_44
*1298 FILLER_26_56
*1299 FILLER_26_6
*1300 FILLER_26_68
*1301 FILLER_26_80
*1302 FILLER_26_85
*1303 FILLER_26_93
*1304 FILLER_26_99
*1305 FILLER_27_11
*1306 FILLER_27_28
*1307 FILLER_27_3
*1308 FILLER_27_40
*1309 FILLER_27_52
*1310 FILLER_27_57
*1311 FILLER_27_69
*1312 FILLER_27_81
*1313 FILLER_27_93
*1314 FILLER_27_99
*1315 FILLER_28_10
*1316 FILLER_28_24
*1317 FILLER_28_34
*1318 FILLER_28_46
*1319 FILLER_28_58
*1320 FILLER_28_6
*1321 FILLER_28_70
*1322 FILLER_28_82
*1323 FILLER_28_85
*1324 FILLER_28_93
*1325 FILLER_28_99
*1326 FILLER_29_11
*1327 FILLER_29_22
*1328 FILLER_29_29
*1329 FILLER_29_3
*1330 FILLER_29_41
*1331 FILLER_29_53
*1332 FILLER_29_57
*1333 FILLER_29_69
*1334 FILLER_29_81
*1335 FILLER_29_93
*1336 FILLER_29_99
*1337 FILLER_2_12
*1338 FILLER_2_16
*1339 FILLER_2_32
*1340 FILLER_2_39
*1341 FILLER_2_51
*1342 FILLER_2_6
*1343 FILLER_2_63
*1344 FILLER_2_75
*1345 FILLER_2_83
*1346 FILLER_2_85
*1347 FILLER_2_93
*1348 FILLER_2_99
*1349 FILLER_30_13
*1350 FILLER_30_23
*1351 FILLER_30_27
*1352 FILLER_30_32
*1353 FILLER_30_44
*1354 FILLER_30_56
*1355 FILLER_30_68
*1356 FILLER_30_80
*1357 FILLER_30_85
*1358 FILLER_30_93
*1359 FILLER_30_99
*1360 FILLER_31_102
*1361 FILLER_31_13
*1362 FILLER_31_21
*1363 FILLER_31_33
*1364 FILLER_31_45
*1365 FILLER_31_53
*1366 FILLER_31_57
*1367 FILLER_31_69
*1368 FILLER_31_81
*1369 FILLER_31_87
*1370 FILLER_31_91
*1371 FILLER_31_98
*1372 FILLER_32_13
*1373 FILLER_32_22
*1374 FILLER_32_29
*1375 FILLER_32_41
*1376 FILLER_32_53
*1377 FILLER_32_65
*1378 FILLER_32_77
*1379 FILLER_32_83
*1380 FILLER_32_85
*1381 FILLER_32_93
*1382 FILLER_32_99
*1383 FILLER_33_13
*1384 FILLER_33_27
*1385 FILLER_33_39
*1386 FILLER_33_51
*1387 FILLER_33_55
*1388 FILLER_33_57
*1389 FILLER_33_69
*1390 FILLER_33_81
*1391 FILLER_33_93
*1392 FILLER_33_99
*1393 FILLER_34_13
*1394 FILLER_34_22
*1395 FILLER_34_29
*1396 FILLER_34_41
*1397 FILLER_34_53
*1398 FILLER_34_65
*1399 FILLER_34_77
*1400 FILLER_34_83
*1401 FILLER_34_85
*1402 FILLER_34_97
*1403 FILLER_35_13
*1404 FILLER_35_21
*1405 FILLER_35_29
*1406 FILLER_35_41
*1407 FILLER_35_53
*1408 FILLER_35_57
*1409 FILLER_35_69
*1410 FILLER_35_81
*1411 FILLER_35_93
*1412 FILLER_35_99
*1413 FILLER_36_13
*1414 FILLER_36_21
*1415 FILLER_36_27
*1416 FILLER_36_29
*1417 FILLER_36_41
*1418 FILLER_36_53
*1419 FILLER_36_65
*1420 FILLER_36_77
*1421 FILLER_36_83
*1422 FILLER_36_85
*1423 FILLER_36_93
*1424 FILLER_36_99
*1425 FILLER_37_11
*1426 FILLER_37_15
*1427 FILLER_37_21
*1428 FILLER_37_29
*1429 FILLER_37_3
*1430 FILLER_37_41
*1431 FILLER_37_53
*1432 FILLER_37_57
*1433 FILLER_37_69
*1434 FILLER_37_81
*1435 FILLER_37_93
*1436 FILLER_37_99
*1437 FILLER_38_13
*1438 FILLER_38_22
*1439 FILLER_38_29
*1440 FILLER_38_37
*1441 FILLER_38_45
*1442 FILLER_38_57
*1443 FILLER_38_69
*1444 FILLER_38_81
*1445 FILLER_38_85
*1446 FILLER_38_97
*1447 FILLER_39_13
*1448 FILLER_39_22
*1449 FILLER_39_28
*1450 FILLER_39_39
*1451 FILLER_39_46
*1452 FILLER_39_54
*1453 FILLER_39_57
*1454 FILLER_39_69
*1455 FILLER_39_81
*1456 FILLER_39_93
*1457 FILLER_39_99
*1458 FILLER_3_101
*1459 FILLER_3_15
*1460 FILLER_3_21
*1461 FILLER_3_30
*1462 FILLER_3_39
*1463 FILLER_3_46
*1464 FILLER_3_54
*1465 FILLER_3_57
*1466 FILLER_3_69
*1467 FILLER_3_7
*1468 FILLER_3_81
*1469 FILLER_3_93
*1470 FILLER_40_11
*1471 FILLER_40_15
*1472 FILLER_40_21
*1473 FILLER_40_27
*1474 FILLER_40_3
*1475 FILLER_40_39
*1476 FILLER_40_51
*1477 FILLER_40_63
*1478 FILLER_40_75
*1479 FILLER_40_83
*1480 FILLER_40_85
*1481 FILLER_40_93
*1482 FILLER_40_99
*1483 FILLER_41_10
*1484 FILLER_41_101
*1485 FILLER_41_19
*1486 FILLER_41_3
*1487 FILLER_41_31
*1488 FILLER_41_43
*1489 FILLER_41_55
*1490 FILLER_41_57
*1491 FILLER_41_69
*1492 FILLER_41_81
*1493 FILLER_41_93
*1494 FILLER_42_11
*1495 FILLER_42_19
*1496 FILLER_42_27
*1497 FILLER_42_3
*1498 FILLER_42_33
*1499 FILLER_42_45
*1500 FILLER_42_57
*1501 FILLER_42_69
*1502 FILLER_42_81
*1503 FILLER_42_85
*1504 FILLER_42_93
*1505 FILLER_42_99
*1506 FILLER_43_11
*1507 FILLER_43_19
*1508 FILLER_43_27
*1509 FILLER_43_3
*1510 FILLER_43_39
*1511 FILLER_43_51
*1512 FILLER_43_55
*1513 FILLER_43_57
*1514 FILLER_43_69
*1515 FILLER_43_81
*1516 FILLER_43_93
*1517 FILLER_43_99
*1518 FILLER_44_11
*1519 FILLER_44_19
*1520 FILLER_44_27
*1521 FILLER_44_29
*1522 FILLER_44_3
*1523 FILLER_44_41
*1524 FILLER_44_53
*1525 FILLER_44_65
*1526 FILLER_44_77
*1527 FILLER_44_83
*1528 FILLER_44_85
*1529 FILLER_44_97
*1530 FILLER_45_16
*1531 FILLER_45_24
*1532 FILLER_45_36
*1533 FILLER_45_48
*1534 FILLER_45_57
*1535 FILLER_45_69
*1536 FILLER_45_7
*1537 FILLER_45_81
*1538 FILLER_45_93
*1539 FILLER_45_99
*1540 FILLER_46_13
*1541 FILLER_46_21
*1542 FILLER_46_27
*1543 FILLER_46_29
*1544 FILLER_46_41
*1545 FILLER_46_53
*1546 FILLER_46_65
*1547 FILLER_46_77
*1548 FILLER_46_83
*1549 FILLER_46_85
*1550 FILLER_46_93
*1551 FILLER_46_99
*1552 FILLER_47_12
*1553 FILLER_47_20
*1554 FILLER_47_3
*1555 FILLER_47_32
*1556 FILLER_47_44
*1557 FILLER_47_57
*1558 FILLER_47_69
*1559 FILLER_47_81
*1560 FILLER_47_93
*1561 FILLER_47_99
*1562 FILLER_48_10
*1563 FILLER_48_19
*1564 FILLER_48_27
*1565 FILLER_48_3
*1566 FILLER_48_32
*1567 FILLER_48_44
*1568 FILLER_48_56
*1569 FILLER_48_68
*1570 FILLER_48_80
*1571 FILLER_48_85
*1572 FILLER_48_97
*1573 FILLER_49_11
*1574 FILLER_49_19
*1575 FILLER_49_27
*1576 FILLER_49_3
*1577 FILLER_49_39
*1578 FILLER_49_51
*1579 FILLER_49_55
*1580 FILLER_49_57
*1581 FILLER_49_69
*1582 FILLER_49_81
*1583 FILLER_49_93
*1584 FILLER_49_99
*1585 FILLER_4_10
*1586 FILLER_4_19
*1587 FILLER_4_27
*1588 FILLER_4_3
*1589 FILLER_4_34
*1590 FILLER_4_41
*1591 FILLER_4_53
*1592 FILLER_4_65
*1593 FILLER_4_77
*1594 FILLER_4_83
*1595 FILLER_4_85
*1596 FILLER_4_93
*1597 FILLER_4_99
*1598 FILLER_50_11
*1599 FILLER_50_22
*1600 FILLER_50_29
*1601 FILLER_50_3
*1602 FILLER_50_41
*1603 FILLER_50_53
*1604 FILLER_50_65
*1605 FILLER_50_77
*1606 FILLER_50_83
*1607 FILLER_50_85
*1608 FILLER_50_93
*1609 FILLER_50_99
*1610 FILLER_51_101
*1611 FILLER_51_11
*1612 FILLER_51_19
*1613 FILLER_51_3
*1614 FILLER_51_31
*1615 FILLER_51_43
*1616 FILLER_51_55
*1617 FILLER_51_57
*1618 FILLER_51_69
*1619 FILLER_51_81
*1620 FILLER_51_93
*1621 FILLER_52_16
*1622 FILLER_52_29
*1623 FILLER_52_41
*1624 FILLER_52_53
*1625 FILLER_52_65
*1626 FILLER_52_7
*1627 FILLER_52_77
*1628 FILLER_52_83
*1629 FILLER_52_85
*1630 FILLER_52_93
*1631 FILLER_52_99
*1632 FILLER_53_13
*1633 FILLER_53_21
*1634 FILLER_53_29
*1635 FILLER_53_3
*1636 FILLER_53_41
*1637 FILLER_53_53
*1638 FILLER_53_57
*1639 FILLER_53_69
*1640 FILLER_53_81
*1641 FILLER_53_93
*1642 FILLER_53_99
*1643 FILLER_54_21
*1644 FILLER_54_27
*1645 FILLER_54_33
*1646 FILLER_54_45
*1647 FILLER_54_57
*1648 FILLER_54_69
*1649 FILLER_54_8
*1650 FILLER_54_81
*1651 FILLER_54_85
*1652 FILLER_54_93
*1653 FILLER_54_99
*1654 FILLER_55_101
*1655 FILLER_55_17
*1656 FILLER_55_25
*1657 FILLER_55_3
*1658 FILLER_55_33
*1659 FILLER_55_45
*1660 FILLER_55_53
*1661 FILLER_55_57
*1662 FILLER_55_69
*1663 FILLER_55_8
*1664 FILLER_55_81
*1665 FILLER_55_93
*1666 FILLER_56_14
*1667 FILLER_56_23
*1668 FILLER_56_27
*1669 FILLER_56_3
*1670 FILLER_56_33
*1671 FILLER_56_41
*1672 FILLER_56_53
*1673 FILLER_56_65
*1674 FILLER_56_77
*1675 FILLER_56_83
*1676 FILLER_56_85
*1677 FILLER_56_9
*1678 FILLER_56_93
*1679 FILLER_56_99
*1680 FILLER_57_12
*1681 FILLER_57_21
*1682 FILLER_57_3
*1683 FILLER_57_30
*1684 FILLER_57_37
*1685 FILLER_57_45
*1686 FILLER_57_51
*1687 FILLER_57_55
*1688 FILLER_57_57
*1689 FILLER_57_69
*1690 FILLER_57_81
*1691 FILLER_57_93
*1692 FILLER_57_99
*1693 FILLER_58_11
*1694 FILLER_58_19
*1695 FILLER_58_27
*1696 FILLER_58_29
*1697 FILLER_58_3
*1698 FILLER_58_41
*1699 FILLER_58_47
*1700 FILLER_58_59
*1701 FILLER_58_71
*1702 FILLER_58_83
*1703 FILLER_58_85
*1704 FILLER_58_97
*1705 FILLER_59_15
*1706 FILLER_59_23
*1707 FILLER_59_32
*1708 FILLER_59_44
*1709 FILLER_59_57
*1710 FILLER_59_69
*1711 FILLER_59_7
*1712 FILLER_59_81
*1713 FILLER_59_93
*1714 FILLER_59_99