*SPEF "ieee 1481-1999"
*DESIGN "wb_openram_wrapper"
*DATE "11:11:11 Fri 11 11, 1111"
*VENDOR "OpenRCX"
*PROGRAM "Parallel Extraction"
*VERSION "1.0"
*DESIGN_FLOW "NAME_SCOPE LOCAL" "PIN_CAP NONE"
*DIVIDER /
*DELIMITER :
*BUS_DELIMITER []
*T_UNIT 1 NS
*C_UNIT 1 PF
*R_UNIT 1 OHM
*L_UNIT 1 HENRY

*NAME_MAP
*1 ram_addr0[0]
*2 ram_addr0[1]
*3 ram_addr0[2]
*4 ram_addr0[3]
*5 ram_addr0[4]
*6 ram_addr0[5]
*7 ram_addr0[6]
*8 ram_addr0[7]
*9 ram_addr1[0]
*10 ram_addr1[1]
*11 ram_addr1[2]
*12 ram_addr1[3]
*13 ram_addr1[4]
*14 ram_addr1[5]
*15 ram_addr1[6]
*16 ram_addr1[7]
*17 ram_clk0
*18 ram_clk1
*19 ram_csb0
*20 ram_csb1
*21 ram_din0[0]
*22 ram_din0[10]
*23 ram_din0[11]
*24 ram_din0[12]
*25 ram_din0[13]
*26 ram_din0[14]
*27 ram_din0[15]
*28 ram_din0[16]
*29 ram_din0[17]
*30 ram_din0[18]
*31 ram_din0[19]
*32 ram_din0[1]
*33 ram_din0[20]
*34 ram_din0[21]
*35 ram_din0[22]
*36 ram_din0[23]
*37 ram_din0[24]
*38 ram_din0[25]
*39 ram_din0[26]
*40 ram_din0[27]
*41 ram_din0[28]
*42 ram_din0[29]
*43 ram_din0[2]
*44 ram_din0[30]
*45 ram_din0[31]
*46 ram_din0[3]
*47 ram_din0[4]
*48 ram_din0[5]
*49 ram_din0[6]
*50 ram_din0[7]
*51 ram_din0[8]
*52 ram_din0[9]
*53 ram_dout0[0]
*54 ram_dout0[10]
*55 ram_dout0[11]
*56 ram_dout0[12]
*57 ram_dout0[13]
*58 ram_dout0[14]
*59 ram_dout0[15]
*60 ram_dout0[16]
*61 ram_dout0[17]
*62 ram_dout0[18]
*63 ram_dout0[19]
*64 ram_dout0[1]
*65 ram_dout0[20]
*66 ram_dout0[21]
*67 ram_dout0[22]
*68 ram_dout0[23]
*69 ram_dout0[24]
*70 ram_dout0[25]
*71 ram_dout0[26]
*72 ram_dout0[27]
*73 ram_dout0[28]
*74 ram_dout0[29]
*75 ram_dout0[2]
*76 ram_dout0[30]
*77 ram_dout0[31]
*78 ram_dout0[3]
*79 ram_dout0[4]
*80 ram_dout0[5]
*81 ram_dout0[6]
*82 ram_dout0[7]
*83 ram_dout0[8]
*84 ram_dout0[9]
*85 ram_dout1[0]
*86 ram_dout1[10]
*87 ram_dout1[11]
*88 ram_dout1[12]
*89 ram_dout1[13]
*90 ram_dout1[14]
*91 ram_dout1[15]
*92 ram_dout1[16]
*93 ram_dout1[17]
*94 ram_dout1[18]
*95 ram_dout1[19]
*96 ram_dout1[1]
*97 ram_dout1[20]
*98 ram_dout1[21]
*99 ram_dout1[22]
*100 ram_dout1[23]
*101 ram_dout1[24]
*102 ram_dout1[25]
*103 ram_dout1[26]
*104 ram_dout1[27]
*105 ram_dout1[28]
*106 ram_dout1[29]
*107 ram_dout1[2]
*108 ram_dout1[30]
*109 ram_dout1[31]
*110 ram_dout1[3]
*111 ram_dout1[4]
*112 ram_dout1[5]
*113 ram_dout1[6]
*114 ram_dout1[7]
*115 ram_dout1[8]
*116 ram_dout1[9]
*117 ram_web0
*118 ram_wmask0[0]
*119 ram_wmask0[1]
*120 ram_wmask0[2]
*121 ram_wmask0[3]
*124 wb_a_clk_i
*125 wb_a_rst_i
*126 wb_b_clk_i
*127 wb_b_rst_i
*128 wbs_a_ack_o
*129 wbs_a_adr_i[0]
*130 wbs_a_adr_i[10]
*131 wbs_a_adr_i[1]
*132 wbs_a_adr_i[2]
*133 wbs_a_adr_i[3]
*134 wbs_a_adr_i[4]
*135 wbs_a_adr_i[5]
*136 wbs_a_adr_i[6]
*137 wbs_a_adr_i[7]
*138 wbs_a_adr_i[8]
*139 wbs_a_adr_i[9]
*140 wbs_a_cyc_i
*141 wbs_a_dat_i[0]
*142 wbs_a_dat_i[10]
*143 wbs_a_dat_i[11]
*144 wbs_a_dat_i[12]
*145 wbs_a_dat_i[13]
*146 wbs_a_dat_i[14]
*147 wbs_a_dat_i[15]
*148 wbs_a_dat_i[16]
*149 wbs_a_dat_i[17]
*150 wbs_a_dat_i[18]
*151 wbs_a_dat_i[19]
*152 wbs_a_dat_i[1]
*153 wbs_a_dat_i[20]
*154 wbs_a_dat_i[21]
*155 wbs_a_dat_i[22]
*156 wbs_a_dat_i[23]
*157 wbs_a_dat_i[24]
*158 wbs_a_dat_i[25]
*159 wbs_a_dat_i[26]
*160 wbs_a_dat_i[27]
*161 wbs_a_dat_i[28]
*162 wbs_a_dat_i[29]
*163 wbs_a_dat_i[2]
*164 wbs_a_dat_i[30]
*165 wbs_a_dat_i[31]
*166 wbs_a_dat_i[3]
*167 wbs_a_dat_i[4]
*168 wbs_a_dat_i[5]
*169 wbs_a_dat_i[6]
*170 wbs_a_dat_i[7]
*171 wbs_a_dat_i[8]
*172 wbs_a_dat_i[9]
*173 wbs_a_dat_o[0]
*174 wbs_a_dat_o[10]
*175 wbs_a_dat_o[11]
*176 wbs_a_dat_o[12]
*177 wbs_a_dat_o[13]
*178 wbs_a_dat_o[14]
*179 wbs_a_dat_o[15]
*180 wbs_a_dat_o[16]
*181 wbs_a_dat_o[17]
*182 wbs_a_dat_o[18]
*183 wbs_a_dat_o[19]
*184 wbs_a_dat_o[1]
*185 wbs_a_dat_o[20]
*186 wbs_a_dat_o[21]
*187 wbs_a_dat_o[22]
*188 wbs_a_dat_o[23]
*189 wbs_a_dat_o[24]
*190 wbs_a_dat_o[25]
*191 wbs_a_dat_o[26]
*192 wbs_a_dat_o[27]
*193 wbs_a_dat_o[28]
*194 wbs_a_dat_o[29]
*195 wbs_a_dat_o[2]
*196 wbs_a_dat_o[30]
*197 wbs_a_dat_o[31]
*198 wbs_a_dat_o[3]
*199 wbs_a_dat_o[4]
*200 wbs_a_dat_o[5]
*201 wbs_a_dat_o[6]
*202 wbs_a_dat_o[7]
*203 wbs_a_dat_o[8]
*204 wbs_a_dat_o[9]
*205 wbs_a_sel_i[0]
*206 wbs_a_sel_i[1]
*207 wbs_a_sel_i[2]
*208 wbs_a_sel_i[3]
*209 wbs_a_stb_i
*210 wbs_a_we_i
*211 wbs_b_ack_o
*212 wbs_b_adr_i[0]
*213 wbs_b_adr_i[1]
*214 wbs_b_adr_i[2]
*215 wbs_b_adr_i[3]
*216 wbs_b_adr_i[4]
*217 wbs_b_adr_i[5]
*218 wbs_b_adr_i[6]
*219 wbs_b_adr_i[7]
*220 wbs_b_adr_i[8]
*221 wbs_b_adr_i[9]
*222 wbs_b_cyc_i
*223 wbs_b_dat_i[0]
*224 wbs_b_dat_i[10]
*225 wbs_b_dat_i[11]
*226 wbs_b_dat_i[12]
*227 wbs_b_dat_i[13]
*228 wbs_b_dat_i[14]
*229 wbs_b_dat_i[15]
*230 wbs_b_dat_i[16]
*231 wbs_b_dat_i[17]
*232 wbs_b_dat_i[18]
*233 wbs_b_dat_i[19]
*234 wbs_b_dat_i[1]
*235 wbs_b_dat_i[20]
*236 wbs_b_dat_i[21]
*237 wbs_b_dat_i[22]
*238 wbs_b_dat_i[23]
*239 wbs_b_dat_i[24]
*240 wbs_b_dat_i[25]
*241 wbs_b_dat_i[26]
*242 wbs_b_dat_i[27]
*243 wbs_b_dat_i[28]
*244 wbs_b_dat_i[29]
*245 wbs_b_dat_i[2]
*246 wbs_b_dat_i[30]
*247 wbs_b_dat_i[31]
*248 wbs_b_dat_i[3]
*249 wbs_b_dat_i[4]
*250 wbs_b_dat_i[5]
*251 wbs_b_dat_i[6]
*252 wbs_b_dat_i[7]
*253 wbs_b_dat_i[8]
*254 wbs_b_dat_i[9]
*255 wbs_b_dat_o[0]
*256 wbs_b_dat_o[10]
*257 wbs_b_dat_o[11]
*258 wbs_b_dat_o[12]
*259 wbs_b_dat_o[13]
*260 wbs_b_dat_o[14]
*261 wbs_b_dat_o[15]
*262 wbs_b_dat_o[16]
*263 wbs_b_dat_o[17]
*264 wbs_b_dat_o[18]
*265 wbs_b_dat_o[19]
*266 wbs_b_dat_o[1]
*267 wbs_b_dat_o[20]
*268 wbs_b_dat_o[21]
*269 wbs_b_dat_o[22]
*270 wbs_b_dat_o[23]
*271 wbs_b_dat_o[24]
*272 wbs_b_dat_o[25]
*273 wbs_b_dat_o[26]
*274 wbs_b_dat_o[27]
*275 wbs_b_dat_o[28]
*276 wbs_b_dat_o[29]
*277 wbs_b_dat_o[2]
*278 wbs_b_dat_o[30]
*279 wbs_b_dat_o[31]
*280 wbs_b_dat_o[3]
*281 wbs_b_dat_o[4]
*282 wbs_b_dat_o[5]
*283 wbs_b_dat_o[6]
*284 wbs_b_dat_o[7]
*285 wbs_b_dat_o[8]
*286 wbs_b_dat_o[9]
*287 wbs_b_sel_i[0]
*288 wbs_b_sel_i[1]
*289 wbs_b_sel_i[2]
*290 wbs_b_sel_i[3]
*291 wbs_b_stb_i
*292 wbs_b_we_i
*293 writable_port_req
*294 _0000_
*295 _0001_
*296 _0002_
*297 _0003_
*298 _0004_
*299 _0005_
*300 _0006_
*301 _0007_
*302 _0008_
*303 _0009_
*304 _0010_
*305 _0011_
*306 _0012_
*307 _0013_
*308 _0014_
*309 _0015_
*310 _0016_
*311 _0017_
*312 _0018_
*313 _0019_
*314 _0020_
*315 _0021_
*316 _0022_
*317 _0023_
*318 _0024_
*319 _0025_
*320 _0026_
*321 _0027_
*322 _0028_
*323 _0029_
*324 _0030_
*325 _0031_
*326 _0032_
*327 _0033_
*328 _0034_
*329 _0035_
*330 _0036_
*331 _0037_
*332 _0038_
*333 _0039_
*334 _0040_
*335 _0041_
*336 _0042_
*337 _0043_
*338 _0044_
*339 _0045_
*340 _0046_
*341 _0047_
*342 _0048_
*343 _0049_
*344 _0050_
*345 _0051_
*346 _0052_
*347 _0053_
*348 _0054_
*349 _0055_
*350 _0056_
*351 _0057_
*352 _0058_
*353 _0059_
*354 _0060_
*355 _0061_
*356 _0062_
*357 _0063_
*358 _0064_
*359 _0065_
*360 _0066_
*361 _0067_
*362 _0068_
*363 _0069_
*364 _0070_
*365 _0071_
*366 _0072_
*367 _0073_
*368 _0074_
*369 _0075_
*370 _0076_
*371 _0077_
*372 _0078_
*373 _0079_
*374 _0080_
*375 _0081_
*376 _0082_
*377 _0083_
*378 _0084_
*379 _0085_
*380 _0086_
*381 _0087_
*382 _0088_
*383 _0089_
*384 _0090_
*385 _0091_
*386 _0092_
*387 _0093_
*388 _0094_
*389 _0095_
*390 _0096_
*391 _0097_
*392 _0098_
*393 _0099_
*394 _0100_
*395 _0101_
*396 _0102_
*397 _0103_
*398 _0104_
*399 _0105_
*400 _0106_
*401 _0107_
*402 _0108_
*403 _0109_
*404 _0110_
*405 _0111_
*406 _0112_
*407 _0113_
*408 _0114_
*409 _0115_
*410 _0116_
*411 _0117_
*412 _0118_
*413 _0119_
*414 _0120_
*415 _0121_
*416 _0122_
*417 _0123_
*418 _0124_
*419 _0125_
*420 _0126_
*421 _0127_
*422 _0128_
*423 _0129_
*424 _0130_
*425 _0131_
*426 _0132_
*427 _0133_
*428 _0134_
*429 _0135_
*430 _0136_
*431 _0137_
*432 _0138_
*433 _0139_
*434 _0140_
*435 _0141_
*436 _0142_
*437 _0143_
*438 _0144_
*439 _0145_
*440 _0146_
*441 _0147_
*442 _0148_
*443 _0149_
*444 _0150_
*445 _0151_
*446 _0152_
*447 _0153_
*448 _0154_
*449 _0155_
*450 _0156_
*451 _0157_
*452 _0158_
*453 _0159_
*454 _0160_
*455 _0161_
*456 _0162_
*457 _0163_
*458 _0164_
*459 _0165_
*460 _0166_
*461 _0167_
*462 _0168_
*463 _0169_
*464 _0170_
*465 _0171_
*466 _0172_
*467 _0173_
*468 _0174_
*469 _0175_
*470 _0176_
*471 _0177_
*472 _0178_
*473 _0179_
*474 _0180_
*475 _0181_
*476 _0182_
*477 _0183_
*478 _0184_
*479 _0185_
*480 _0186_
*481 _0187_
*482 _0188_
*483 _0189_
*484 _0190_
*485 _0191_
*486 _0192_
*487 _0193_
*488 _0194_
*489 _0195_
*490 _0196_
*491 _0197_
*492 _0198_
*493 _0199_
*494 _0200_
*495 _0201_
*496 _0202_
*497 _0203_
*498 _0204_
*499 _0205_
*500 _0206_
*501 _0207_
*502 _0208_
*503 _0209_
*504 _0210_
*505 _0211_
*506 _0212_
*507 _0213_
*508 _0214_
*509 _0215_
*510 _0216_
*511 _0217_
*512 _0218_
*513 _0219_
*514 _0220_
*515 _0221_
*516 _0222_
*517 _0223_
*518 _0224_
*519 _0225_
*520 _0226_
*521 _0227_
*522 _0228_
*523 _0229_
*524 _0230_
*525 _0231_
*526 _0232_
*527 _0233_
*528 _0234_
*529 _0235_
*530 _0236_
*531 _0237_
*532 _0238_
*533 _0239_
*534 _0240_
*535 _0241_
*536 _0242_
*537 _0243_
*538 _0244_
*539 _0245_
*540 _0246_
*541 _0247_
*542 _0248_
*543 _0249_
*544 _0250_
*545 _0251_
*546 _0252_
*547 _0253_
*548 _0254_
*549 _0255_
*550 _0256_
*551 _0257_
*552 _0258_
*553 _0259_
*554 _0260_
*555 _0261_
*556 _0262_
*557 _0263_
*558 _0264_
*559 _0265_
*560 _0266_
*561 _0267_
*562 _0268_
*563 _0269_
*564 _0270_
*565 _0271_
*566 _0272_
*567 _0273_
*568 _0274_
*569 _0275_
*570 _0276_
*571 _0277_
*572 _0278_
*573 _0279_
*574 _0280_
*575 _0281_
*576 _0282_
*577 _0283_
*578 _0284_
*579 _0285_
*580 _0286_
*581 _0287_
*582 _0288_
*583 _0289_
*584 _0290_
*585 _0291_
*586 _0292_
*587 _0293_
*588 _0294_
*589 _0295_
*590 _0296_
*591 _0297_
*592 _0298_
*593 _0299_
*594 _0300_
*595 _0301_
*596 _0302_
*597 _0303_
*598 _0304_
*599 _0305_
*600 _0306_
*601 _0307_
*602 _0308_
*603 _0309_
*604 _0310_
*605 _0311_
*606 _0312_
*607 _0313_
*608 _0314_
*609 _0315_
*610 _0316_
*611 _0317_
*612 _0318_
*613 _0319_
*614 _0320_
*615 _0321_
*616 _0322_
*617 _0323_
*618 _0324_
*619 _0325_
*620 _0326_
*621 _0327_
*622 _0328_
*623 _0329_
*624 _0330_
*625 _0331_
*626 _0332_
*627 _0333_
*628 _0334_
*629 _0335_
*630 _0336_
*631 _0337_
*632 _0338_
*633 _0339_
*634 _0340_
*635 _0341_
*636 _0342_
*637 _0343_
*638 _0344_
*639 _0345_
*640 _0346_
*641 _0347_
*642 _0348_
*643 _0349_
*644 _0350_
*645 _0351_
*646 _0352_
*647 _0353_
*648 _0354_
*649 _0355_
*650 _0356_
*651 _0357_
*652 _0358_
*653 _0359_
*654 _0360_
*655 _0361_
*656 _0362_
*657 _0363_
*658 _0364_
*659 _0365_
*660 _0366_
*661 _0367_
*662 _0368_
*663 _0369_
*664 _0370_
*665 _0371_
*666 _0372_
*667 _0373_
*668 _0374_
*669 _0375_
*670 _0376_
*671 _0377_
*672 _0378_
*673 _0379_
*674 _0380_
*675 _0381_
*676 _0382_
*677 _0383_
*678 _0384_
*679 _0385_
*680 _0386_
*681 _0387_
*682 _0388_
*683 _0389_
*684 _0390_
*685 _0391_
*686 _0392_
*687 _0393_
*688 _0394_
*689 _0395_
*690 _0396_
*691 _0397_
*692 _0398_
*693 _0399_
*694 _0400_
*695 _0401_
*696 _0402_
*697 _0403_
*698 _0404_
*699 _0405_
*700 _0406_
*701 _0407_
*702 _0408_
*703 _0409_
*704 _0410_
*705 _0411_
*706 _0412_
*707 _0413_
*708 _0414_
*709 _0415_
*710 _0416_
*711 _0417_
*712 _0418_
*713 _0419_
*714 _0420_
*715 _0421_
*716 _0422_
*717 _0423_
*718 _0424_
*719 _0425_
*720 _0426_
*721 _0427_
*722 _0428_
*723 _0429_
*724 _0430_
*725 _0431_
*726 _0432_
*727 _0433_
*728 _0434_
*729 _0435_
*730 _0436_
*731 _0437_
*732 _0438_
*733 _0439_
*734 _0440_
*735 _0441_
*736 _0442_
*737 _0443_
*738 _0444_
*739 _0445_
*740 _0446_
*741 _0447_
*742 _0448_
*743 _0449_
*744 _0450_
*745 _0451_
*746 _0452_
*747 _0453_
*748 _0454_
*749 _0455_
*750 _0456_
*751 _0457_
*752 _0458_
*753 _0459_
*754 _0460_
*755 _0461_
*756 _0462_
*757 _0463_
*758 _0464_
*759 _0465_
*760 _0466_
*761 _0467_
*762 _0468_
*763 _0469_
*764 _0470_
*765 _0471_
*766 _0472_
*767 _0473_
*768 _0474_
*769 _0475_
*770 _0476_
*771 _0477_
*772 _0478_
*773 _0479_
*774 _0480_
*775 _0481_
*776 _0482_
*777 _0483_
*778 _0484_
*779 _0485_
*780 _0486_
*781 _0487_
*782 _0488_
*783 _0489_
*784 _0490_
*785 _0491_
*786 _0492_
*787 _0493_
*788 _0494_
*789 _0495_
*790 _0496_
*791 _0497_
*792 _0498_
*793 _0499_
*794 _0500_
*795 _0501_
*796 _0502_
*797 _0503_
*798 _0504_
*799 _0505_
*800 _0506_
*801 _0507_
*802 _0508_
*803 _0509_
*804 _0510_
*805 _0511_
*806 _0512_
*807 _0513_
*808 _0514_
*809 _0515_
*810 _0516_
*811 _0517_
*812 _0518_
*813 _0519_
*814 _0520_
*815 _0521_
*816 _0522_
*817 _0523_
*818 _0524_
*819 _0525_
*820 _0526_
*821 _0527_
*822 _0528_
*823 _0529_
*824 _0530_
*825 _0531_
*826 _0532_
*827 _0533_
*828 _0534_
*829 _0535_
*830 _0536_
*831 _0537_
*832 _0538_
*833 _0539_
*834 _0540_
*835 _0541_
*836 _0542_
*837 _0543_
*838 _0544_
*839 _0545_
*840 _0546_
*841 _0547_
*842 _0548_
*843 _0549_
*844 _0550_
*845 _0551_
*846 _0552_
*847 _0553_
*848 _0554_
*849 _0555_
*850 _0556_
*851 _0557_
*852 _0558_
*853 _0559_
*854 _0560_
*855 _0561_
*856 _0562_
*857 _0563_
*858 _0564_
*859 _0565_
*860 _0566_
*861 _0567_
*862 _0568_
*863 _0569_
*864 _0570_
*865 _0571_
*866 _0572_
*867 _0573_
*868 _0574_
*869 _0575_
*870 _0576_
*871 _0577_
*872 _0578_
*873 _0579_
*874 _0580_
*875 _0581_
*876 _0582_
*877 _0583_
*878 _0584_
*879 _0585_
*880 _0586_
*881 _0587_
*882 _0588_
*883 _0589_
*884 _0590_
*885 _0591_
*886 _0592_
*887 _0593_
*888 _0594_
*889 _0595_
*890 _0596_
*891 _0597_
*892 _0598_
*893 _0599_
*894 _0600_
*895 _0601_
*896 _0602_
*897 _0603_
*898 _0604_
*899 _0605_
*900 _0606_
*901 _0607_
*902 _0608_
*903 _0609_
*904 _0610_
*905 _0611_
*906 _0612_
*907 _0613_
*908 _0614_
*909 _0615_
*910 _0616_
*911 _0617_
*912 _0618_
*913 _0619_
*914 _0620_
*915 _0621_
*916 _0622_
*917 _0623_
*918 _0624_
*919 _0625_
*920 _0626_
*921 _0627_
*922 _0628_
*923 _0629_
*924 _0630_
*925 _0631_
*926 _0632_
*927 _0633_
*928 _0634_
*929 _0635_
*930 _0636_
*931 _0637_
*932 _0638_
*933 _0639_
*934 _0640_
*935 _0641_
*936 _0642_
*937 _0643_
*938 _0644_
*939 _0645_
*940 _0646_
*941 _0647_
*942 _0648_
*943 _0649_
*944 _0650_
*945 _0651_
*946 _0652_
*947 _0653_
*948 _0654_
*949 _0655_
*950 _0656_
*951 _0657_
*952 _0658_
*953 _0659_
*954 _0660_
*955 _0661_
*956 _0662_
*957 _0663_
*958 _0664_
*959 _0665_
*960 _0666_
*961 _0667_
*962 _0668_
*963 _0669_
*964 _0670_
*965 _0671_
*966 _0672_
*967 _0673_
*968 _0674_
*969 _0675_
*970 _0676_
*971 _0677_
*972 _0678_
*973 _0679_
*974 _0680_
*975 _0681_
*976 _0682_
*977 _0683_
*978 _0684_
*979 _0685_
*980 _0686_
*981 _0687_
*982 _0688_
*983 _0689_
*984 _0690_
*985 _0691_
*986 _0692_
*987 _0693_
*988 _0694_
*989 _0695_
*990 _0696_
*991 _0697_
*992 _0698_
*993 _0699_
*994 _0700_
*995 _0701_
*996 _0702_
*997 _0703_
*998 _0704_
*999 _0705_
*1000 _0706_
*1001 _0707_
*1002 _0708_
*1003 _0709_
*1004 _0710_
*1005 _0711_
*1006 _0712_
*1007 _0713_
*1008 _0714_
*1009 _0715_
*1010 _0716_
*1011 _0717_
*1012 _0718_
*1013 _0719_
*1014 _0720_
*1015 _0721_
*1016 _0722_
*1017 _0723_
*1018 _0724_
*1019 _0725_
*1020 _0726_
*1021 _0727_
*1022 _0728_
*1023 _0729_
*1024 _0730_
*1025 _0731_
*1026 _0732_
*1027 _0733_
*1028 _0734_
*1029 _0735_
*1030 _0736_
*1031 _0737_
*1032 _0738_
*1033 _0739_
*1034 _0740_
*1035 _0741_
*1036 _0742_
*1037 _0743_
*1038 _0744_
*1039 _0745_
*1040 _0746_
*1041 _0747_
*1042 _0748_
*1043 _0749_
*1044 _0750_
*1045 _0751_
*1046 _0752_
*1047 _0753_
*1048 _0754_
*1049 _0755_
*1050 _0756_
*1051 _0757_
*1052 _0758_
*1053 _0759_
*1054 _0760_
*1055 _0761_
*1056 _0762_
*1057 _0763_
*1058 _0764_
*1059 _0765_
*1060 _0766_
*1061 _0767_
*1062 _0768_
*1063 _0769_
*1064 _0770_
*1065 _0771_
*1066 _0772_
*1067 _0773_
*1068 _0774_
*1069 _0775_
*1070 _0776_
*1071 _0777_
*1072 _0778_
*1073 _0779_
*1074 _0780_
*1075 _0781_
*1076 _0782_
*1077 _0783_
*1078 _0784_
*1079 _0785_
*1080 _0786_
*1081 _0787_
*1082 _0788_
*1083 _0789_
*1084 _0790_
*1085 _0791_
*1086 _0792_
*1087 _0793_
*1088 _0794_
*1089 _0795_
*1090 _0796_
*1091 _0797_
*1092 _0798_
*1093 _0799_
*1094 _0800_
*1095 _0801_
*1096 _0802_
*1097 _0803_
*1098 _0804_
*1099 _0805_
*1100 _0806_
*1101 _0807_
*1102 _0808_
*1103 _0809_
*1104 _0810_
*1105 _0811_
*1106 _0812_
*1107 _0813_
*1108 _0814_
*1109 _0815_
*1110 _0816_
*1111 _0819_
*1112 _0820_
*1113 _0821_
*1114 _0822_
*1115 _0823_
*1116 _0824_
*1117 _0825_
*1118 _0826_
*1119 _0827_
*1120 _0828_
*1121 _0829_
*1122 _0830_
*1123 _0831_
*1124 _0832_
*1125 _0833_
*1126 _0834_
*1127 _0835_
*1128 _0836_
*1129 _0837_
*1130 _0838_
*1131 _0839_
*1132 _0840_
*1133 _0841_
*1134 _0842_
*1135 _0843_
*1136 _0844_
*1137 _0845_
*1138 _0846_
*1139 _0847_
*1140 _0848_
*1141 _0849_
*1142 _0850_
*1143 _0851_
*1144 _0852_
*1145 _0853_
*1146 _0854_
*1147 _0855_
*1148 _0856_
*1149 _0857_
*1150 _0858_
*1151 _0859_
*1152 _0860_
*1153 _0861_
*1154 _0862_
*1155 _0863_
*1156 _0864_
*1157 _0865_
*1158 _0866_
*1159 _0867_
*1160 _0868_
*1161 _0869_
*1162 _0870_
*1163 _0871_
*1164 _0872_
*1165 _0873_
*1166 _0874_
*1167 _0875_
*1168 _0876_
*1169 _0877_
*1170 clknet_0__0010_
*1171 clknet_0__0047_
*1172 clknet_0__0053_
*1173 clknet_0__0426_
*1174 clknet_0__0427_
*1175 clknet_0__0428_
*1176 clknet_0__0434_
*1177 clknet_0__0435_
*1178 clknet_0__0437_
*1179 clknet_0__0443_
*1180 clknet_0__0445_
*1181 clknet_0__0451_
*1182 clknet_0__0452_
*1183 clknet_0__0454_
*1184 clknet_0__0455_
*1185 clknet_0__0456_
*1186 clknet_0__0462_
*1187 clknet_0__0464_
*1188 clknet_0__0470_
*1189 clknet_0__0472_
*1190 clknet_0__0478_
*1191 clknet_0__0480_
*1192 clknet_0__0486_
*1193 clknet_0__0488_
*1194 clknet_0__0520_
*1195 clknet_0__0521_
*1196 clknet_0__0523_
*1197 clknet_0__0524_
*1198 clknet_0__0529_
*1199 clknet_0__0531_
*1200 clknet_0__0538_
*1201 clknet_0__0540_
*1202 clknet_0__0546_
*1203 clknet_0__0548_
*1204 clknet_0__0554_
*1205 clknet_0__0556_
*1206 clknet_0__0562_
*1207 clknet_0__0564_
*1208 clknet_0__0570_
*1209 clknet_0__0572_
*1210 clknet_0__0578_
*1211 clknet_0__0580_
*1212 clknet_0_wb_a_clk_i
*1213 clknet_0_wb_b_clk_i
*1214 clknet_1_0_0__0010_
*1215 clknet_1_0_0__0047_
*1216 clknet_1_0_0__0053_
*1217 clknet_1_0_0__0426_
*1218 clknet_1_0_0__0427_
*1219 clknet_1_0_0__0428_
*1220 clknet_1_0_0__0434_
*1221 clknet_1_0_0__0435_
*1222 clknet_1_0_0__0437_
*1223 clknet_1_0_0__0443_
*1224 clknet_1_0_0__0445_
*1225 clknet_1_0_0__0451_
*1226 clknet_1_0_0__0452_
*1227 clknet_1_0_0__0454_
*1228 clknet_1_0_0__0455_
*1229 clknet_1_0_0__0456_
*1230 clknet_1_0_0__0462_
*1231 clknet_1_0_0__0464_
*1232 clknet_1_0_0__0470_
*1233 clknet_1_0_0__0472_
*1234 clknet_1_0_0__0478_
*1235 clknet_1_0_0__0480_
*1236 clknet_1_0_0__0486_
*1237 clknet_1_0_0__0488_
*1238 clknet_1_0_0__0520_
*1239 clknet_1_0_0__0521_
*1240 clknet_1_0_0__0523_
*1241 clknet_1_0_0__0524_
*1242 clknet_1_0_0__0529_
*1243 clknet_1_0_0__0531_
*1244 clknet_1_0_0__0538_
*1245 clknet_1_0_0__0540_
*1246 clknet_1_0_0__0546_
*1247 clknet_1_0_0__0548_
*1248 clknet_1_0_0__0554_
*1249 clknet_1_0_0__0556_
*1250 clknet_1_0_0__0562_
*1251 clknet_1_0_0__0564_
*1252 clknet_1_0_0__0570_
*1253 clknet_1_0_0__0572_
*1254 clknet_1_0_0__0578_
*1255 clknet_1_0_0__0580_
*1256 clknet_1_0_0_wb_a_clk_i
*1257 clknet_1_0_0_wb_b_clk_i
*1258 clknet_1_1_0__0010_
*1259 clknet_1_1_0__0047_
*1260 clknet_1_1_0__0053_
*1261 clknet_1_1_0__0426_
*1262 clknet_1_1_0__0427_
*1263 clknet_1_1_0__0428_
*1264 clknet_1_1_0__0434_
*1265 clknet_1_1_0__0435_
*1266 clknet_1_1_0__0437_
*1267 clknet_1_1_0__0443_
*1268 clknet_1_1_0__0445_
*1269 clknet_1_1_0__0451_
*1270 clknet_1_1_0__0452_
*1271 clknet_1_1_0__0454_
*1272 clknet_1_1_0__0455_
*1273 clknet_1_1_0__0456_
*1274 clknet_1_1_0__0462_
*1275 clknet_1_1_0__0464_
*1276 clknet_1_1_0__0470_
*1277 clknet_1_1_0__0472_
*1278 clknet_1_1_0__0478_
*1279 clknet_1_1_0__0480_
*1280 clknet_1_1_0__0486_
*1281 clknet_1_1_0__0488_
*1282 clknet_1_1_0__0520_
*1283 clknet_1_1_0__0521_
*1284 clknet_1_1_0__0523_
*1285 clknet_1_1_0__0524_
*1286 clknet_1_1_0__0529_
*1287 clknet_1_1_0__0531_
*1288 clknet_1_1_0__0538_
*1289 clknet_1_1_0__0540_
*1290 clknet_1_1_0__0546_
*1291 clknet_1_1_0__0548_
*1292 clknet_1_1_0__0554_
*1293 clknet_1_1_0__0556_
*1294 clknet_1_1_0__0562_
*1295 clknet_1_1_0__0564_
*1296 clknet_1_1_0__0570_
*1297 clknet_1_1_0__0572_
*1298 clknet_1_1_0__0578_
*1299 clknet_1_1_0__0580_
*1300 clknet_1_1_0_wb_a_clk_i
*1301 clknet_1_1_0_wb_b_clk_i
*1302 latency_reg\.data_out\[0\]
*1303 latency_reg\.data_out\[10\]
*1304 latency_reg\.data_out\[11\]
*1305 latency_reg\.data_out\[12\]
*1306 latency_reg\.data_out\[13\]
*1307 latency_reg\.data_out\[14\]
*1308 latency_reg\.data_out\[15\]
*1309 latency_reg\.data_out\[1\]
*1310 latency_reg\.data_out\[2\]
*1311 latency_reg\.data_out\[3\]
*1312 latency_reg\.data_out\[4\]
*1313 latency_reg\.data_out\[5\]
*1314 latency_reg\.data_out\[6\]
*1315 latency_reg\.data_out\[7\]
*1316 latency_reg\.data_out\[8\]
*1317 latency_reg\.data_out\[9\]
*1318 net1
*1319 net10
*1320 net100
*1321 net101
*1322 net102
*1323 net103
*1324 net104
*1325 net105
*1326 net106
*1327 net107
*1328 net108
*1329 net109
*1330 net11
*1331 net110
*1332 net111
*1333 net112
*1334 net113
*1335 net114
*1336 net115
*1337 net116
*1338 net117
*1339 net118
*1340 net119
*1341 net12
*1342 net120
*1343 net121
*1344 net122
*1345 net123
*1346 net124
*1347 net125
*1348 net126
*1349 net127
*1350 net128
*1351 net129
*1352 net13
*1353 net130
*1354 net131
*1355 net132
*1356 net133
*1357 net134
*1358 net135
*1359 net136
*1360 net137
*1361 net138
*1362 net139
*1363 net14
*1364 net140
*1365 net141
*1366 net142
*1367 net143
*1368 net144
*1369 net145
*1370 net146
*1371 net147
*1372 net148
*1373 net149
*1374 net15
*1375 net150
*1376 net151
*1377 net152
*1378 net153
*1379 net154
*1380 net155
*1381 net156
*1382 net157
*1383 net158
*1384 net159
*1385 net16
*1386 net160
*1387 net161
*1388 net162
*1389 net163
*1390 net164
*1391 net165
*1392 net166
*1393 net167
*1394 net168
*1395 net169
*1396 net17
*1397 net170
*1398 net171
*1399 net172
*1400 net173
*1401 net174
*1402 net175
*1403 net176
*1404 net177
*1405 net178
*1406 net179
*1407 net18
*1408 net180
*1409 net181
*1410 net182
*1411 net183
*1412 net184
*1413 net185
*1414 net186
*1415 net187
*1416 net188
*1417 net189
*1418 net19
*1419 net190
*1420 net191
*1421 net192
*1422 net193
*1423 net194
*1424 net195
*1425 net196
*1426 net197
*1427 net198
*1428 net199
*1429 net2
*1430 net20
*1431 net200
*1432 net201
*1433 net202
*1434 net203
*1435 net204
*1436 net205
*1437 net206
*1438 net207
*1439 net208
*1440 net209
*1441 net21
*1442 net210
*1443 net211
*1444 net212
*1445 net213
*1446 net214
*1447 net215
*1448 net216
*1449 net217
*1450 net218
*1451 net219
*1452 net22
*1453 net220
*1454 net221
*1455 net222
*1456 net223
*1457 net224
*1458 net225
*1459 net226
*1460 net227
*1461 net228
*1462 net229
*1463 net23
*1464 net230
*1465 net231
*1466 net232
*1467 net233
*1468 net234
*1469 net235
*1470 net236
*1471 net237
*1472 net238
*1473 net239
*1474 net24
*1475 net240
*1476 net241
*1477 net242
*1478 net243
*1479 net244
*1480 net245
*1481 net246
*1482 net247
*1483 net248
*1484 net249
*1485 net25
*1486 net250
*1487 net251
*1488 net252
*1489 net253
*1490 net254
*1491 net255
*1492 net256
*1493 net257
*1494 net258
*1495 net259
*1496 net26
*1497 net260
*1498 net261
*1499 net262
*1500 net263
*1501 net264
*1502 net265
*1503 net266
*1504 net267
*1505 net268
*1506 net269
*1507 net27
*1508 net270
*1509 net271
*1510 net272
*1511 net273
*1512 net274
*1513 net275
*1514 net276
*1515 net277
*1516 net278
*1517 net279
*1518 net28
*1519 net280
*1520 net281
*1521 net282
*1522 net283
*1523 net284
*1524 net285
*1525 net286
*1526 net287
*1527 net288
*1528 net289
*1529 net29
*1530 net290
*1531 net291
*1532 net292
*1533 net293
*1534 net294
*1535 net295
*1536 net296
*1537 net297
*1538 net298
*1539 net299
*1540 net3
*1541 net30
*1542 net300
*1543 net301
*1544 net302
*1545 net303
*1546 net304
*1547 net305
*1548 net306
*1549 net307
*1550 net308
*1551 net309
*1552 net31
*1553 net32
*1554 net33
*1555 net34
*1556 net35
*1557 net36
*1558 net37
*1559 net38
*1560 net39
*1561 net4
*1562 net40
*1563 net41
*1564 net42
*1565 net43
*1566 net44
*1567 net45
*1568 net46
*1569 net47
*1570 net48
*1571 net49
*1572 net5
*1573 net50
*1574 net51
*1575 net52
*1576 net53
*1577 net54
*1578 net55
*1579 net56
*1580 net57
*1581 net58
*1582 net59
*1583 net6
*1584 net60
*1585 net61
*1586 net62
*1587 net63
*1588 net64
*1589 net65
*1590 net66
*1591 net67
*1592 net68
*1593 net69
*1594 net7
*1595 net70
*1596 net71
*1597 net72
*1598 net73
*1599 net74
*1600 net75
*1601 net76
*1602 net77
*1603 net78
*1604 net79
*1605 net8
*1606 net80
*1607 net81
*1608 net82
*1609 net83
*1610 net84
*1611 net85
*1612 net86
*1613 net87
*1614 net88
*1615 net89
*1616 net9
*1617 net90
*1618 net91
*1619 net92
*1620 net93
*1621 net94
*1622 net95
*1623 net96
*1624 net97
*1625 net98
*1626 net99
*1627 port0_rw\.cycle_r\[0\]
*1628 port0_rw\.cycle_r\[1\]
*1629 port0_rw\.cycle_r\[2\]
*1630 port0_rw\.cycle_r\[3\]
*1631 port0_rw\.dout_r\[0\]
*1632 port0_rw\.dout_r\[10\]
*1633 port0_rw\.dout_r\[11\]
*1634 port0_rw\.dout_r\[12\]
*1635 port0_rw\.dout_r\[13\]
*1636 port0_rw\.dout_r\[14\]
*1637 port0_rw\.dout_r\[15\]
*1638 port0_rw\.dout_r\[16\]
*1639 port0_rw\.dout_r\[17\]
*1640 port0_rw\.dout_r\[18\]
*1641 port0_rw\.dout_r\[19\]
*1642 port0_rw\.dout_r\[1\]
*1643 port0_rw\.dout_r\[20\]
*1644 port0_rw\.dout_r\[21\]
*1645 port0_rw\.dout_r\[22\]
*1646 port0_rw\.dout_r\[23\]
*1647 port0_rw\.dout_r\[24\]
*1648 port0_rw\.dout_r\[25\]
*1649 port0_rw\.dout_r\[26\]
*1650 port0_rw\.dout_r\[27\]
*1651 port0_rw\.dout_r\[28\]
*1652 port0_rw\.dout_r\[29\]
*1653 port0_rw\.dout_r\[2\]
*1654 port0_rw\.dout_r\[30\]
*1655 port0_rw\.dout_r\[31\]
*1656 port0_rw\.dout_r\[3\]
*1657 port0_rw\.dout_r\[4\]
*1658 port0_rw\.dout_r\[5\]
*1659 port0_rw\.dout_r\[6\]
*1660 port0_rw\.dout_r\[7\]
*1661 port0_rw\.dout_r\[8\]
*1662 port0_rw\.dout_r\[9\]
*1663 port0_rw\.int_clk_r
*1664 port0_rw\.state_r\[0\]
*1665 port0_rw\.state_r\[1\]
*1666 port0_rw\.state_r\[2\]
*1667 port0_rw\.state_r\[3\]
*1668 port0_rw\.state_r\[4\]
*1669 port1_r\.cycle_r\[0\]
*1670 port1_r\.cycle_r\[1\]
*1671 port1_r\.cycle_r\[2\]
*1672 port1_r\.cycle_r\[3\]
*1673 port1_r\.dout_r\[0\]
*1674 port1_r\.dout_r\[10\]
*1675 port1_r\.dout_r\[11\]
*1676 port1_r\.dout_r\[12\]
*1677 port1_r\.dout_r\[13\]
*1678 port1_r\.dout_r\[14\]
*1679 port1_r\.dout_r\[15\]
*1680 port1_r\.dout_r\[16\]
*1681 port1_r\.dout_r\[17\]
*1682 port1_r\.dout_r\[18\]
*1683 port1_r\.dout_r\[19\]
*1684 port1_r\.dout_r\[1\]
*1685 port1_r\.dout_r\[20\]
*1686 port1_r\.dout_r\[21\]
*1687 port1_r\.dout_r\[22\]
*1688 port1_r\.dout_r\[23\]
*1689 port1_r\.dout_r\[24\]
*1690 port1_r\.dout_r\[25\]
*1691 port1_r\.dout_r\[26\]
*1692 port1_r\.dout_r\[27\]
*1693 port1_r\.dout_r\[28\]
*1694 port1_r\.dout_r\[29\]
*1695 port1_r\.dout_r\[2\]
*1696 port1_r\.dout_r\[30\]
*1697 port1_r\.dout_r\[31\]
*1698 port1_r\.dout_r\[3\]
*1699 port1_r\.dout_r\[4\]
*1700 port1_r\.dout_r\[5\]
*1701 port1_r\.dout_r\[6\]
*1702 port1_r\.dout_r\[7\]
*1703 port1_r\.dout_r\[8\]
*1704 port1_r\.dout_r\[9\]
*1705 port1_r\.int_clk_r
*1706 port1_r\.state_r\[0\]
*1707 port1_r\.state_r\[1\]
*1708 port1_r\.state_r\[2\]
*1709 port1_r\.state_r\[3\]
*1710 port1_r\.state_r\[4\]
*1711 writable_port_req_r
*1712 ANTENNA_0
*1713 ANTENNA_1
*1714 ANTENNA_10
*1715 ANTENNA_11
*1716 ANTENNA_12
*1717 ANTENNA_13
*1718 ANTENNA_14
*1719 ANTENNA_15
*1720 ANTENNA_16
*1721 ANTENNA_17
*1722 ANTENNA_18
*1723 ANTENNA_19
*1724 ANTENNA_2
*1725 ANTENNA_20
*1726 ANTENNA_21
*1727 ANTENNA_3
*1728 ANTENNA_4
*1729 ANTENNA_5
*1730 ANTENNA_6
*1731 ANTENNA_7
*1732 ANTENNA_8
*1733 ANTENNA_9
*1734 FILLER_0_109
*1735 FILLER_0_113
*1736 FILLER_0_125
*1737 FILLER_0_137
*1738 FILLER_0_141
*1739 FILLER_0_15
*1740 FILLER_0_153
*1741 FILLER_0_165
*1742 FILLER_0_169
*1743 FILLER_0_181
*1744 FILLER_0_193
*1745 FILLER_0_197
*1746 FILLER_0_209
*1747 FILLER_0_22
*1748 FILLER_0_221
*1749 FILLER_0_225
*1750 FILLER_0_237
*1751 FILLER_0_249
*1752 FILLER_0_253
*1753 FILLER_0_265
*1754 FILLER_0_277
*1755 FILLER_0_281
*1756 FILLER_0_29
*1757 FILLER_0_296
*1758 FILLER_0_304
*1759 FILLER_0_309
*1760 FILLER_0_316
*1761 FILLER_0_41
*1762 FILLER_0_53
*1763 FILLER_0_57
*1764 FILLER_0_69
*1765 FILLER_0_7
*1766 FILLER_0_81
*1767 FILLER_0_85
*1768 FILLER_0_97
*1769 FILLER_100_109
*1770 FILLER_100_121
*1771 FILLER_100_136
*1772 FILLER_100_14
*1773 FILLER_100_157
*1774 FILLER_100_161
*1775 FILLER_100_165
*1776 FILLER_100_178
*1777 FILLER_100_192
*1778 FILLER_100_213
*1779 FILLER_100_225
*1780 FILLER_100_237
*1781 FILLER_100_245
*1782 FILLER_100_251
*1783 FILLER_100_26
*1784 FILLER_100_260
*1785 FILLER_100_266
*1786 FILLER_100_273
*1787 FILLER_100_29
*1788 FILLER_100_290
*1789 FILLER_100_304
*1790 FILLER_100_313
*1791 FILLER_100_319
*1792 FILLER_100_41
*1793 FILLER_100_53
*1794 FILLER_100_65
*1795 FILLER_100_7
*1796 FILLER_100_77
*1797 FILLER_100_83
*1798 FILLER_100_85
*1799 FILLER_100_97
*1800 FILLER_101_105
*1801 FILLER_101_111
*1802 FILLER_101_113
*1803 FILLER_101_125
*1804 FILLER_101_133
*1805 FILLER_101_14
*1806 FILLER_101_143
*1807 FILLER_101_164
*1808 FILLER_101_169
*1809 FILLER_101_193
*1810 FILLER_101_205
*1811 FILLER_101_217
*1812 FILLER_101_223
*1813 FILLER_101_225
*1814 FILLER_101_233
*1815 FILLER_101_242
*1816 FILLER_101_249
*1817 FILLER_101_26
*1818 FILLER_101_261
*1819 FILLER_101_275
*1820 FILLER_101_279
*1821 FILLER_101_285
*1822 FILLER_101_293
*1823 FILLER_101_306
*1824 FILLER_101_316
*1825 FILLER_101_38
*1826 FILLER_101_50
*1827 FILLER_101_57
*1828 FILLER_101_69
*1829 FILLER_101_7
*1830 FILLER_101_81
*1831 FILLER_101_93
*1832 FILLER_102_109
*1833 FILLER_102_121
*1834 FILLER_102_133
*1835 FILLER_102_139
*1836 FILLER_102_141
*1837 FILLER_102_157
*1838 FILLER_102_170
*1839 FILLER_102_183
*1840 FILLER_102_19
*1841 FILLER_102_191
*1842 FILLER_102_195
*1843 FILLER_102_197
*1844 FILLER_102_209
*1845 FILLER_102_217
*1846 FILLER_102_229
*1847 FILLER_102_241
*1848 FILLER_102_249
*1849 FILLER_102_253
*1850 FILLER_102_265
*1851 FILLER_102_27
*1852 FILLER_102_277
*1853 FILLER_102_285
*1854 FILLER_102_289
*1855 FILLER_102_29
*1856 FILLER_102_294
*1857 FILLER_102_304
*1858 FILLER_102_315
*1859 FILLER_102_319
*1860 FILLER_102_41
*1861 FILLER_102_53
*1862 FILLER_102_65
*1863 FILLER_102_7
*1864 FILLER_102_77
*1865 FILLER_102_83
*1866 FILLER_102_85
*1867 FILLER_102_97
*1868 FILLER_103_105
*1869 FILLER_103_111
*1870 FILLER_103_113
*1871 FILLER_103_125
*1872 FILLER_103_136
*1873 FILLER_103_148
*1874 FILLER_103_164
*1875 FILLER_103_178
*1876 FILLER_103_19
*1877 FILLER_103_190
*1878 FILLER_103_196
*1879 FILLER_103_203
*1880 FILLER_103_215
*1881 FILLER_103_223