*SPEF "ieee 1481-1999"
*DESIGN "wrapped_frequency_counter"
*DATE "11:11:11 Fri 11 11, 1111"
*VENDOR "OpenRCX"
*PROGRAM "Parallel Extraction"
*VERSION "1.0"
*DESIGN_FLOW "NAME_SCOPE LOCAL" "PIN_CAP NONE"
*DIVIDER /
*DELIMITER :
*BUS_DELIMITER []
*T_UNIT 1 NS
*C_UNIT 1 PF
*R_UNIT 1 OHM
*L_UNIT 1 HENRY

*NAME_MAP
*1 active
*2 io_in[0]
*3 io_in[10]
*4 io_in[11]
*5 io_in[12]
*6 io_in[13]
*7 io_in[14]
*8 io_in[15]
*9 io_in[16]
*10 io_in[17]
*11 io_in[18]
*12 io_in[19]
*13 io_in[1]
*14 io_in[20]
*15 io_in[21]
*16 io_in[22]
*17 io_in[23]
*18 io_in[24]
*19 io_in[25]
*20 io_in[26]
*21 io_in[27]
*22 io_in[28]
*23 io_in[29]
*24 io_in[2]
*25 io_in[30]
*26 io_in[31]
*27 io_in[32]
*28 io_in[33]
*29 io_in[34]
*30 io_in[35]
*31 io_in[36]
*32 io_in[37]
*33 io_in[3]
*34 io_in[4]
*35 io_in[5]
*36 io_in[6]
*37 io_in[7]
*38 io_in[8]
*39 io_in[9]
*40 io_oeb[0]
*41 io_oeb[10]
*42 io_oeb[11]
*43 io_oeb[12]
*44 io_oeb[13]
*45 io_oeb[14]
*46 io_oeb[15]
*47 io_oeb[16]
*48 io_oeb[17]
*49 io_oeb[18]
*50 io_oeb[19]
*51 io_oeb[1]
*52 io_oeb[20]
*53 io_oeb[21]
*54 io_oeb[22]
*55 io_oeb[23]
*56 io_oeb[24]
*57 io_oeb[25]
*58 io_oeb[26]
*59 io_oeb[27]
*60 io_oeb[28]
*61 io_oeb[29]
*62 io_oeb[2]
*63 io_oeb[30]
*64 io_oeb[31]
*65 io_oeb[32]
*66 io_oeb[33]
*67 io_oeb[34]
*68 io_oeb[35]
*69 io_oeb[36]
*70 io_oeb[37]
*71 io_oeb[3]
*72 io_oeb[4]
*73 io_oeb[5]
*74 io_oeb[6]
*75 io_oeb[7]
*76 io_oeb[8]
*77 io_oeb[9]
*78 io_out[0]
*79 io_out[10]
*80 io_out[11]
*81 io_out[12]
*82 io_out[13]
*83 io_out[14]
*84 io_out[15]
*85 io_out[16]
*86 io_out[17]
*87 io_out[18]
*88 io_out[19]
*89 io_out[1]
*90 io_out[20]
*91 io_out[21]
*92 io_out[22]
*93 io_out[23]
*94 io_out[24]
*95 io_out[25]
*96 io_out[26]
*97 io_out[27]
*98 io_out[28]
*99 io_out[29]
*100 io_out[2]
*101 io_out[30]
*102 io_out[31]
*103 io_out[32]
*104 io_out[33]
*105 io_out[34]
*106 io_out[35]
*107 io_out[36]
*108 io_out[37]
*109 io_out[3]
*110 io_out[4]
*111 io_out[5]
*112 io_out[6]
*113 io_out[7]
*114 io_out[8]
*115 io_out[9]
*116 la1_data_in[0]
*117 la1_data_in[10]
*118 la1_data_in[11]
*119 la1_data_in[12]
*120 la1_data_in[13]
*121 la1_data_in[14]
*122 la1_data_in[15]
*123 la1_data_in[16]
*124 la1_data_in[17]
*125 la1_data_in[18]
*126 la1_data_in[19]
*127 la1_data_in[1]
*128 la1_data_in[20]
*129 la1_data_in[21]
*130 la1_data_in[22]
*131 la1_data_in[23]
*132 la1_data_in[24]
*133 la1_data_in[25]
*134 la1_data_in[26]
*135 la1_data_in[27]
*136 la1_data_in[28]
*137 la1_data_in[29]
*138 la1_data_in[2]
*139 la1_data_in[30]
*140 la1_data_in[31]
*141 la1_data_in[3]
*142 la1_data_in[4]
*143 la1_data_in[5]
*144 la1_data_in[6]
*145 la1_data_in[7]
*146 la1_data_in[8]
*147 la1_data_in[9]
*148 la1_data_out[0]
*149 la1_data_out[10]
*150 la1_data_out[11]
*151 la1_data_out[12]
*152 la1_data_out[13]
*153 la1_data_out[14]
*154 la1_data_out[15]
*155 la1_data_out[16]
*156 la1_data_out[17]
*157 la1_data_out[18]
*158 la1_data_out[19]
*159 la1_data_out[1]
*160 la1_data_out[20]
*161 la1_data_out[21]
*162 la1_data_out[22]
*163 la1_data_out[23]
*164 la1_data_out[24]
*165 la1_data_out[25]
*166 la1_data_out[26]
*167 la1_data_out[27]
*168 la1_data_out[28]
*169 la1_data_out[29]
*170 la1_data_out[2]
*171 la1_data_out[30]
*172 la1_data_out[31]
*173 la1_data_out[3]
*174 la1_data_out[4]
*175 la1_data_out[5]
*176 la1_data_out[6]
*177 la1_data_out[7]
*178 la1_data_out[8]
*179 la1_data_out[9]
*180 la1_oenb[0]
*181 la1_oenb[10]
*182 la1_oenb[11]
*183 la1_oenb[12]
*184 la1_oenb[13]
*185 la1_oenb[14]
*186 la1_oenb[15]
*187 la1_oenb[16]
*188 la1_oenb[17]
*189 la1_oenb[18]
*190 la1_oenb[19]
*191 la1_oenb[1]
*192 la1_oenb[20]
*193 la1_oenb[21]
*194 la1_oenb[22]
*195 la1_oenb[23]
*196 la1_oenb[24]
*197 la1_oenb[25]
*198 la1_oenb[26]
*199 la1_oenb[27]
*200 la1_oenb[28]
*201 la1_oenb[29]
*202 la1_oenb[2]
*203 la1_oenb[30]
*204 la1_oenb[31]
*205 la1_oenb[3]
*206 la1_oenb[4]
*207 la1_oenb[5]
*208 la1_oenb[6]
*209 la1_oenb[7]
*210 la1_oenb[8]
*211 la1_oenb[9]
*214 wb_clk_i
*215 _0000_
*216 _0001_
*217 _0002_
*218 _0003_
*219 _0004_
*220 _0005_
*221 _0006_
*222 _0007_
*223 _0008_
*224 _0009_
*225 _0010_
*226 _0011_
*227 _0012_
*228 _0013_
*229 _0014_
*230 _0015_
*231 _0016_
*232 _0017_
*233 _0018_
*234 _0019_
*235 _0020_
*236 _0021_
*237 _0022_
*238 _0023_
*239 _0024_
*240 _0025_
*241 _0026_
*242 _0027_
*243 _0028_
*244 _0029_
*245 _0030_
*246 _0031_
*247 _0032_
*248 _0033_
*249 _0034_
*250 _0035_
*251 _0036_
*252 _0037_
*253 _0038_
*254 _0039_
*255 _0040_
*256 _0041_
*257 _0042_
*258 _0043_
*259 _0044_
*260 _0045_
*261 _0046_
*262 _0047_
*263 _0048_
*264 _0049_
*265 _0050_
*266 _0051_
*267 _0052_
*268 _0053_
*269 _0054_
*270 _0055_
*271 _0056_
*272 _0057_
*273 _0058_
*274 _0059_
*275 _0060_
*276 _0061_
*277 _0062_
*278 _0063_
*279 _0064_
*280 _0065_
*281 _0066_
*282 _0067_
*283 _0068_
*284 _0069_
*285 _0070_
*286 _0071_
*287 _0072_
*288 _0073_
*289 _0074_
*290 _0075_
*291 _0076_
*292 _0077_
*293 _0078_
*294 _0079_
*295 _0080_
*296 _0081_
*297 _0082_
*298 _0083_
*299 _0084_
*300 _0085_
*301 _0086_
*302 _0087_
*303 _0088_
*304 _0089_
*305 _0090_
*306 _0091_
*307 _0092_
*308 _0093_
*309 _0094_
*310 _0095_
*311 _0096_
*312 _0097_
*313 _0098_
*314 _0099_
*315 _0100_
*316 _0101_
*317 _0102_
*318 _0103_
*319 _0104_
*320 _0105_
*321 _0106_
*322 _0107_
*323 _0108_
*324 _0109_
*325 _0110_
*326 _0111_
*327 _0112_
*328 _0113_
*329 _0114_
*330 _0115_
*331 _0116_
*332 _0117_
*333 _0118_
*334 _0119_
*335 _0120_
*336 _0121_
*337 _0122_
*338 _0123_
*339 _0124_
*340 _0125_
*341 _0126_
*342 _0127_
*343 _0128_
*344 _0129_
*345 _0130_
*346 _0131_
*347 _0132_
*348 _0133_
*349 _0134_
*350 _0135_
*351 _0136_
*352 _0137_
*353 _0138_
*354 _0139_
*355 _0140_
*356 _0141_
*357 _0142_
*358 _0143_
*359 _0144_
*360 _0145_
*361 _0146_
*362 _0147_
*363 _0148_
*364 _0149_
*365 _0150_
*366 _0151_
*367 _0152_
*368 _0153_
*369 _0154_
*370 _0155_
*371 _0156_
*372 _0157_
*373 _0158_
*374 _0159_
*375 _0160_
*376 _0161_
*377 _0162_
*378 _0163_
*379 _0164_
*380 _0165_
*381 _0166_
*382 _0167_
*383 _0168_
*384 _0169_
*385 _0170_
*386 _0171_
*387 _0172_
*388 _0173_
*389 _0174_
*390 _0175_
*391 _0176_
*392 _0177_
*393 _0178_
*394 _0179_
*395 _0180_
*396 _0181_
*397 _0182_
*398 _0183_
*399 _0184_
*400 _0185_
*401 _0186_
*402 _0187_
*403 _0188_
*404 _0189_
*405 _0190_
*406 _0191_
*407 _0192_
*408 _0193_
*409 _0194_
*410 _0195_
*411 _0196_
*412 _0197_
*413 _0198_
*414 _0199_
*415 _0200_
*416 _0201_
*417 _0202_
*418 _0203_
*419 _0204_
*420 _0205_
*421 _0206_
*422 _0207_
*423 _0208_
*424 _0209_
*425 _0210_
*426 _0211_
*427 _0212_
*428 _0213_
*429 _0214_
*430 _0215_
*431 _0216_
*432 _0217_
*433 _0218_
*434 _0219_
*435 _0220_
*436 _0221_
*437 _0222_
*438 _0223_
*439 _0224_
*440 _0225_
*441 _0226_
*442 _0227_
*443 _0228_
*444 _0229_
*445 _0230_
*446 _0231_
*447 _0232_
*448 _0233_
*449 _0234_
*450 _0235_
*451 _0236_
*452 _0237_
*453 _0238_
*454 _0239_
*455 _0240_
*456 _0241_
*457 _0242_
*458 _0243_
*459 _0244_
*460 _0245_
*461 _0246_
*462 _0247_
*463 _0248_
*464 _0249_
*465 _0250_
*466 _0251_
*467 _0252_
*468 _0253_
*469 _0254_
*470 _0255_
*471 _0256_
*472 _0257_
*473 _0258_
*474 _0259_
*475 _0260_
*476 _0261_
*477 _0262_
*478 _0263_
*479 _0264_
*480 _0265_
*481 _0266_
*482 _0267_
*483 _0268_
*484 _0269_
*485 _0270_
*486 _0271_
*487 _0272_
*488 _0273_
*489 _0274_
*490 _0275_
*491 _0276_
*492 _0277_
*493 _0278_
*494 _0279_
*495 _0280_
*496 _0281_
*497 _0282_
*498 _0283_
*499 _0284_
*500 _0285_
*501 _0286_
*502 _0287_
*503 _0288_
*504 _0289_
*505 _0290_
*506 _0291_
*507 _0292_
*508 _0293_
*509 _0294_
*510 _0295_
*511 _0296_
*512 _0297_
*513 _0298_
*514 _0299_
*515 _0300_
*516 _0301_
*517 _0302_
*518 _0303_
*519 _0304_
*520 _0305_
*521 _0306_
*522 _0307_
*523 _0308_
*524 _0309_
*525 _0310_
*526 _0311_
*527 _0312_
*528 _0313_
*529 _0314_
*530 _0315_
*531 _0316_
*532 _0317_
*533 _0318_
*534 _0319_
*535 _0320_
*536 _0321_
*537 _0322_
*538 _0323_
*539 _0324_
*540 _0325_
*541 _0326_
*542 _0327_
*543 _0328_
*544 _0329_
*545 _0330_
*546 _0331_
*547 _0332_
*548 _0333_
*549 _0334_
*550 _0335_
*551 _0336_
*552 _0337_
*553 _0338_
*554 _0339_
*555 _0340_
*556 _0341_
*557 _0342_
*558 _0343_
*559 _0344_
*560 _0345_
*561 _0346_
*562 _0347_
*563 _0348_
*564 _0349_
*565 _0350_
*566 _0351_
*567 _0352_
*568 _0353_
*569 _0354_
*570 _0355_
*571 _0356_
*572 _0357_
*573 _0358_
*574 _0359_
*575 _0360_
*576 _0361_
*577 _0362_
*578 _0363_
*579 _0364_
*580 _0365_
*581 _0366_
*582 _0367_
*583 _0368_
*584 _0369_
*585 _0370_
*586 _0371_
*587 _0372_
*588 _0373_
*589 _0374_
*590 _0375_
*591 _0376_
*592 _0377_
*593 _0378_
*594 _0379_
*595 _0380_
*596 _0381_
*597 _0382_
*598 _0383_
*599 _0384_
*600 _0385_
*601 _0386_
*602 _0387_
*603 _0388_
*604 _0389_
*605 _0390_
*606 _0391_
*607 _0392_
*608 _0393_
*609 _0394_
*610 _0395_
*611 _0396_
*612 _0397_
*613 _0398_
*614 _0399_
*615 _0400_
*616 _0401_
*617 _0402_
*618 _0403_
*619 _0404_
*620 _0405_
*621 _0406_
*622 _0407_
*623 _0408_
*624 _0409_
*625 _0410_
*626 _0411_
*627 _0412_
*628 _0413_
*629 _0414_
*630 _0415_
*631 _0416_
*632 _0417_
*633 _0418_
*634 _0419_
*635 _0420_
*636 _0421_
*637 _0422_
*638 _0423_
*639 _0424_
*640 _0425_
*641 _0426_
*642 _0427_
*643 clknet_0_wb_clk_i
*644 clknet_2_0_0_wb_clk_i
*645 clknet_2_1_0_wb_clk_i
*646 clknet_2_2_0_wb_clk_i
*647 clknet_2_3_0_wb_clk_i
*648 frequency_counter_0\.clk_counter\[0\]
*649 frequency_counter_0\.clk_counter\[10\]
*650 frequency_counter_0\.clk_counter\[11\]
*651 frequency_counter_0\.clk_counter\[1\]
*652 frequency_counter_0\.clk_counter\[2\]
*653 frequency_counter_0\.clk_counter\[3\]
*654 frequency_counter_0\.clk_counter\[4\]
*655 frequency_counter_0\.clk_counter\[5\]
*656 frequency_counter_0\.clk_counter\[6\]
*657 frequency_counter_0\.clk_counter\[7\]
*658 frequency_counter_0\.clk_counter\[8\]
*659 frequency_counter_0\.clk_counter\[9\]
*660 frequency_counter_0\.digit
*661 frequency_counter_0\.edge_counter\[0\]
*662 frequency_counter_0\.edge_counter\[1\]
*663 frequency_counter_0\.edge_counter\[2\]
*664 frequency_counter_0\.edge_counter\[3\]
*665 frequency_counter_0\.edge_counter\[4\]
*666 frequency_counter_0\.edge_counter\[5\]
*667 frequency_counter_0\.edge_counter\[6\]
*668 frequency_counter_0\.edge_detect0\.q0
*669 frequency_counter_0\.edge_detect0\.q1
*670 frequency_counter_0\.edge_detect0\.q2
*671 frequency_counter_0\.segments\[0\]
*672 frequency_counter_0\.segments\[1\]
*673 frequency_counter_0\.segments\[2\]
*674 frequency_counter_0\.segments\[3\]
*675 frequency_counter_0\.segments\[4\]
*676 frequency_counter_0\.segments\[5\]
*677 frequency_counter_0\.segments\[6\]
*678 frequency_counter_0\.seven_segment0\.load
*679 frequency_counter_0\.seven_segment0\.ten_count\[0\]
*680 frequency_counter_0\.seven_segment0\.ten_count\[1\]
*681 frequency_counter_0\.seven_segment0\.ten_count\[2\]
*682 frequency_counter_0\.seven_segment0\.ten_count\[3\]
*683 frequency_counter_0\.seven_segment0\.ten_count_reg\[0\]
*684 frequency_counter_0\.seven_segment0\.ten_count_reg\[1\]
*685 frequency_counter_0\.seven_segment0\.ten_count_reg\[2\]
*686 frequency_counter_0\.seven_segment0\.ten_count_reg\[3\]
*687 frequency_counter_0\.seven_segment0\.unit_count\[0\]
*688 frequency_counter_0\.seven_segment0\.unit_count\[1\]
*689 frequency_counter_0\.seven_segment0\.unit_count\[2\]
*690 frequency_counter_0\.seven_segment0\.unit_count\[3\]
*691 frequency_counter_0\.seven_segment0\.unit_count_reg\[0\]
*692 frequency_counter_0\.seven_segment0\.unit_count_reg\[1\]
*693 frequency_counter_0\.seven_segment0\.unit_count_reg\[2\]
*694 frequency_counter_0\.seven_segment0\.unit_count_reg\[3\]
*695 frequency_counter_0\.state\[0\]
*696 frequency_counter_0\.state\[1\]
*697 frequency_counter_0\.state\[2\]
*698 frequency_counter_0\.update_period\[0\]
*699 frequency_counter_0\.update_period\[10\]
*700 frequency_counter_0\.update_period\[11\]
*701 frequency_counter_0\.update_period\[1\]
*702 frequency_counter_0\.update_period\[2\]
*703 frequency_counter_0\.update_period\[3\]
*704 frequency_counter_0\.update_period\[4\]
*705 frequency_counter_0\.update_period\[5\]
*706 frequency_counter_0\.update_period\[6\]
*707 frequency_counter_0\.update_period\[7\]
*708 frequency_counter_0\.update_period\[8\]
*709 frequency_counter_0\.update_period\[9\]
*710 net1
*711 net10
*712 net100
*713 net101
*714 net102
*715 net103
*716 net104
*717 net105
*718 net106
*719 net107
*720 net108
*721 net109
*722 net11
*723 net110
*724 net111
*725 net112
*726 net113
*727 net114
*728 net115
*729 net116
*730 net117
*731 net118
*732 net12
*733 net13
*734 net14
*735 net15
*736 net16
*737 net17
*738 net18
*739 net19
*740 net2
*741 net20
*742 net21
*743 net22
*744 net23
*745 net24
*746 net25
*747 net26
*748 net27
*749 net28
*750 net29
*751 net3
*752 net30
*753 net31
*754 net32
*755 net33
*756 net34
*757 net35
*758 net36
*759 net37
*760 net38
*761 net39
*762 net4
*763 net40
*764 net41
*765 net42
*766 net43
*767 net44
*768 net45
*769 net46
*770 net47
*771 net48
*772 net49
*773 net5
*774 net50
*775 net51
*776 net52
*777 net53
*778 net54
*779 net55
*780 net56
*781 net57
*782 net58
*783 net59
*784 net6
*785 net60
*786 net61
*787 net62
*788 net63
*789 net64
*790 net65
*791 net66
*792 net67
*793 net68
*794 net69
*795 net7
*796 net70
*797 net71
*798 net72
*799 net73
*800 net74
*801 net75
*802 net76
*803 net77
*804 net78
*805 net79
*806 net8
*807 net80
*808 net81
*809 net82
*810 net83
*811 net84
*812 net85
*813 net86
*814 net87
*815 net88
*816 net89
*817 net9
*818 net90
*819 net91
*820 net92
*821 net93
*822 net94
*823 net95
*824 net96
*825 net97
*826 net98
*827 net99
*828 FILLER_0_105
*829 FILLER_0_111
*830 FILLER_0_113
*831 FILLER_0_125
*832 FILLER_0_137
*833 FILLER_0_141
*834 FILLER_0_15
*835 FILLER_0_153
*836 FILLER_0_165
*837 FILLER_0_173
*838 FILLER_0_177
*839 FILLER_0_181
*840 FILLER_0_193
*841 FILLER_0_197
*842 FILLER_0_202
*843 FILLER_0_214
*844 FILLER_0_22
*845 FILLER_0_222
*846 FILLER_0_225
*847 FILLER_0_237
*848 FILLER_0_249
*849 FILLER_0_253
*850 FILLER_0_276
*851 FILLER_0_281
*852 FILLER_0_29
*853 FILLER_0_293
*854 FILLER_0_3
*855 FILLER_0_35
*856 FILLER_0_43
*857 FILLER_0_48
*858 FILLER_0_60
*859 FILLER_0_72
*860 FILLER_0_85
*861 FILLER_0_93
*862 FILLER_10_109
*863 FILLER_10_11
*864 FILLER_10_121
*865 FILLER_10_133
*866 FILLER_10_139
*867 FILLER_10_141
*868 FILLER_10_153
*869 FILLER_10_165
*870 FILLER_10_177
*871 FILLER_10_189
*872 FILLER_10_19
*873 FILLER_10_195
*874 FILLER_10_197
*875 FILLER_10_209
*876 FILLER_10_221
*877 FILLER_10_23
*878 FILLER_10_233
*879 FILLER_10_245
*880 FILLER_10_251
*881 FILLER_10_253
*882 FILLER_10_265
*883 FILLER_10_27
*884 FILLER_10_270
*885 FILLER_10_295
*886 FILLER_10_3
*887 FILLER_10_32
*888 FILLER_10_39
*889 FILLER_10_51
*890 FILLER_10_63
*891 FILLER_10_7
*892 FILLER_10_75
*893 FILLER_10_83
*894 FILLER_10_85
*895 FILLER_10_97
*896 FILLER_11_105
*897 FILLER_11_111
*898 FILLER_11_113
*899 FILLER_11_125
*900 FILLER_11_137
*901 FILLER_11_149
*902 FILLER_11_161
*903 FILLER_11_167
*904 FILLER_11_169
*905 FILLER_11_181
*906 FILLER_11_193
*907 FILLER_11_205
*908 FILLER_11_217
*909 FILLER_11_223
*910 FILLER_11_225
*911 FILLER_11_237
*912 FILLER_11_249
*913 FILLER_11_276
*914 FILLER_11_281
*915 FILLER_11_286
*916 FILLER_11_293
*917 FILLER_11_3
*918 FILLER_11_41
*919 FILLER_11_53
*920 FILLER_11_57
*921 FILLER_11_69
*922 FILLER_11_8
*923 FILLER_11_81
*924 FILLER_11_93
*925 FILLER_12_109
*926 FILLER_12_121
*927 FILLER_12_133
*928 FILLER_12_139
*929 FILLER_12_141
*930 FILLER_12_153
*931 FILLER_12_165
*932 FILLER_12_177
*933 FILLER_12_189
*934 FILLER_12_195
*935 FILLER_12_197
*936 FILLER_12_209
*937 FILLER_12_221
*938 FILLER_12_233
*939 FILLER_12_24
*940 FILLER_12_245
*941 FILLER_12_251
*942 FILLER_12_253
*943 FILLER_12_257
*944 FILLER_12_264
*945 FILLER_12_272
*946 FILLER_12_29
*947 FILLER_12_295
*948 FILLER_12_41
*949 FILLER_12_53
*950 FILLER_12_65
*951 FILLER_12_77
*952 FILLER_12_83
*953 FILLER_12_85
*954 FILLER_12_97
*955 FILLER_13_105
*956 FILLER_13_111
*957 FILLER_13_113
*958 FILLER_13_125
*959 FILLER_13_137
*960 FILLER_13_149
*961 FILLER_13_161
*962 FILLER_13_167
*963 FILLER_13_169
*964 FILLER_13_181
*965 FILLER_13_193
*966 FILLER_13_205
*967 FILLER_13_217
*968 FILLER_13_223
*969 FILLER_13_225
*970 FILLER_13_237
*971 FILLER_13_249
*972 FILLER_13_276
*973 FILLER_13_281
*974 FILLER_13_285
*975 FILLER_13_292
*976 FILLER_13_298
*977 FILLER_13_3
*978 FILLER_13_30
*979 FILLER_13_42
*980 FILLER_13_54
*981 FILLER_13_57
*982 FILLER_13_69
*983 FILLER_13_81
*984 FILLER_13_93
*985 FILLER_14_109
*986 FILLER_14_121
*987 FILLER_14_133
*988 FILLER_14_139
*989 FILLER_14_141
*990 FILLER_14_15
*991 FILLER_14_153
*992 FILLER_14_165
*993 FILLER_14_169
*994 FILLER_14_179
*995 FILLER_14_191
*996 FILLER_14_195
*997 FILLER_14_197
*998 FILLER_14_209
*999 FILLER_14_22
*1000 FILLER_14_221
*1001 FILLER_14_233
*1002 FILLER_14_245
*1003 FILLER_14_251
*1004 FILLER_14_253
*1005 FILLER_14_257
*1006 FILLER_14_282
*1007 FILLER_14_289
*1008 FILLER_14_29
*1009 FILLER_14_297
*1010 FILLER_14_3
*1011 FILLER_14_41
*1012 FILLER_14_53
*1013 FILLER_14_65
*1014 FILLER_14_77
*1015 FILLER_14_8
*1016 FILLER_14_83
*1017 FILLER_14_85
*1018 FILLER_14_97
*1019 FILLER_15_105
*1020 FILLER_15_111
*1021 FILLER_15_113
*1022 FILLER_15_125
*1023 FILLER_15_137
*1024 FILLER_15_149
*1025 FILLER_15_164
*1026 FILLER_15_185
*1027 FILLER_15_19
*1028 FILLER_15_197
*1029 FILLER_15_205
*1030 FILLER_15_216
*1031 FILLER_15_225
*1032 FILLER_15_237
*1033 FILLER_15_249
*1034 FILLER_15_276
*1035 FILLER_15_281
*1036 FILLER_15_285
*1037 FILLER_15_292
*1038 FILLER_15_298
*1039 FILLER_15_3
*1040 FILLER_15_31
*1041 FILLER_15_43
*1042 FILLER_15_55
*1043 FILLER_15_57
*1044 FILLER_15_69
*1045 FILLER_15_7
*1046 FILLER_15_81
*1047 FILLER_15_93
*1048 FILLER_16_10
*1049 FILLER_16_109
*1050 FILLER_16_121
*1051 FILLER_16_133
*1052 FILLER_16_139
*1053 FILLER_16_141
*1054 FILLER_16_153
*1055 FILLER_16_159
*1056 FILLER_16_170
*1057 FILLER_16_192
*1058 FILLER_16_197
*1059 FILLER_16_214
*1060 FILLER_16_22
*1061 FILLER_16_221
*1062 FILLER_16_233
*1063 FILLER_16_245
*1064 FILLER_16_251
*1065 FILLER_16_253
*1066 FILLER_16_265
*1067 FILLER_16_270
*1068 FILLER_16_29
*1069 FILLER_16_295
*1070 FILLER_16_3
*1071 FILLER_16_41
*1072 FILLER_16_53
*1073 FILLER_16_65
*1074 FILLER_16_77
*1075 FILLER_16_83
*1076 FILLER_16_85
*1077 FILLER_16_97
*1078 FILLER_17_105
*1079 FILLER_17_111
*1080 FILLER_17_113
*1081 FILLER_17_125
*1082 FILLER_17_137
*1083 FILLER_17_149
*1084 FILLER_17_161
*1085 FILLER_17_167
*1086 FILLER_17_169
*1087 FILLER_17_175
*1088 FILLER_17_182
*1089 FILLER_17_190
*1090 FILLER_17_197
*1091 FILLER_17_206
*1092 FILLER_17_215
*1093 FILLER_17_223
*1094 FILLER_17_225
*1095 FILLER_17_233
*1096 FILLER_17_239
*1097 FILLER_17_25
*1098 FILLER_17_252
*1099 FILLER_17_261
*1100 FILLER_17_265
*1101 FILLER_17_271
*1102 FILLER_17_279
*1103 FILLER_17_281
*1104 FILLER_17_286
*1105 FILLER_17_293
*1106 FILLER_17_3
*1107 FILLER_17_37
*1108 FILLER_17_49
*1109 FILLER_17_55
*1110 FILLER_17_57
*1111 FILLER_17_69
*1112 FILLER_17_81
*1113 FILLER_17_93
*1114 FILLER_18_109
*1115 FILLER_18_121
*1116 FILLER_18_133
*1117 FILLER_18_139
*1118 FILLER_18_141
*1119 FILLER_18_153
*1120 FILLER_18_160
*1121 FILLER_18_172
*1122 FILLER_18_178
*1123 FILLER_18_19
*1124 FILLER_18_190
*1125 FILLER_18_200
*1126 FILLER_18_212
*1127 FILLER_18_216
*1128 FILLER_18_220
*1129 FILLER_18_248
*1130 FILLER_18_253
*1131 FILLER_18_27
*1132 FILLER_18_276
*1133 FILLER_18_284
*1134 FILLER_18_29
*1135 FILLER_18_291
*1136 FILLER_18_3
*1137 FILLER_18_41
*1138 FILLER_18_53
*1139 FILLER_18_65
*1140 FILLER_18_7
*1141 FILLER_18_77
*1142 FILLER_18_83
*1143 FILLER_18_85
*1144 FILLER_18_97
*1145 FILLER_19_105
*1146 FILLER_19_111
*1147 FILLER_19_113
*1148 FILLER_19_125
*1149 FILLER_19_137
*1150 FILLER_19_145
*1151 FILLER_19_164
*1152 FILLER_19_169
*1153 FILLER_19_175
*1154 FILLER_19_181
*1155 FILLER_19_193
*1156 FILLER_19_20
*1157 FILLER_19_205
*1158 FILLER_19_213
*1159 FILLER_19_219
*1160 FILLER_19_223
*1161 FILLER_19_241
*1162 FILLER_19_247
*1163 FILLER_19_257
*1164 FILLER_19_265
*1165 FILLER_19_276
*1166 FILLER_19_288
*1167 FILLER_19_295
*1168 FILLER_19_3
*1169 FILLER_19_32
*1170 FILLER_19_44
*1171 FILLER_19_57
*1172 FILLER_19_69
*1173 FILLER_19_8
*1174 FILLER_19_81
*1175 FILLER_19_93
*1176 FILLER_1_103
*1177 FILLER_1_111
*1178 FILLER_1_134
*1179 FILLER_1_142
*1180 FILLER_1_164
*1181 FILLER_1_190
*1182 FILLER_1_198
*1183 FILLER_1_220
*1184 FILLER_1_228
*1185 FILLER_1_240
*1186 FILLER_1_245
*1187 FILLER_1_27
*1188 FILLER_1_270
*1189 FILLER_1_278
*1190 FILLER_1_284
*1191 FILLER_1_291
*1192 FILLER_1_3
*1193 FILLER_1_52
*1194 FILLER_1_78
*1195 FILLER_20_109
*1196 FILLER_20_11
*1197 FILLER_20_121
*1198 FILLER_20_133
*1199 FILLER_20_139
*1200 FILLER_20_144
*1201 FILLER_20_152
*1202 FILLER_20_160
*1203 FILLER_20_167
*1204 FILLER_20_171
*1205 FILLER_20_188
*1206 FILLER_20_197
*1207 FILLER_20_203
*1208 FILLER_20_207
*1209 FILLER_20_215
*1210 FILLER_20_226
*1211 FILLER_20_23
*1212 FILLER_20_240
*1213 FILLER_20_253
*1214 FILLER_20_260
*1215 FILLER_20_27
*1216 FILLER_20_270
*1217 FILLER_20_29
*1218 FILLER_20_295
*1219 FILLER_20_3
*1220 FILLER_20_41
*1221 FILLER_20_53
*1222 FILLER_20_65
*1223 FILLER_20_7
*1224 FILLER_20_77
*1225 FILLER_20_83
*1226 FILLER_20_85
*1227 FILLER_20_97
*1228 FILLER_21_105
*1229 FILLER_21_111
*1230 FILLER_21_113
*1231 FILLER_21_125
*1232 FILLER_21_149
*1233 FILLER_21_160
*1234 FILLER_21_169
*1235 FILLER_21_178
*1236 FILLER_21_185
*1237 FILLER_21_189
*1238 FILLER_21_193
*1239 FILLER_21_199
*1240 FILLER_21_216
*1241 FILLER_21_225
*1242 FILLER_21_237
*1243 FILLER_21_244
*1244 FILLER_21_25
*1245 FILLER_21_256
*1246 FILLER_21_264
*1247 FILLER_21_271
*1248 FILLER_21_279
*1249 FILLER_21_286
*1250 FILLER_21_293
*1251 FILLER_21_3
*1252 FILLER_21_37
*1253 FILLER_21_49
*1254 FILLER_21_55
*1255 FILLER_21_57
*1256 FILLER_21_69
*1257 FILLER_21_81
*1258 FILLER_21_93
*1259 FILLER_22_109
*1260 FILLER_22_121
*1261 FILLER_22_133
*1262 FILLER_22_139
*1263 FILLER_22_141
*1264 FILLER_22_149
*1265 FILLER_22_157
*1266 FILLER_22_164
*1267 FILLER_22_176
*1268 FILLER_22_188
*1269 FILLER_22_197
*1270 FILLER_22_208
*1271 FILLER_22_232
*1272 FILLER_22_24
*1273 FILLER_22_241
*1274 FILLER_22_249
*1275 FILLER_22_262
*1276 FILLER_22_270
*1277 FILLER_22_29
*1278 FILLER_22_295
*1279 FILLER_22_41
*1280 FILLER_22_53
*1281 FILLER_22_65
*1282 FILLER_22_77
*1283 FILLER_22_83
*1284 FILLER_22_85
*1285 FILLER_22_97
*1286 FILLER_23_10
*1287 FILLER_23_105
*1288 FILLER_23_111
*1289 FILLER_23_113
*1290 FILLER_23_117
*1291 FILLER_23_134
*1292 FILLER_23_14
*1293 FILLER_23_146
*1294 FILLER_23_150
*1295 FILLER_23_154
*1296 FILLER_23_166
*1297 FILLER_23_169
*1298 FILLER_23_181
*1299 FILLER_23_199
*1300 FILLER_23_216
*1301 FILLER_23_225
*1302 FILLER_23_231
*1303 FILLER_23_251
*1304 FILLER_23_269
*1305 FILLER_23_276
*1306 FILLER_23_288
*1307 FILLER_23_295
*1308 FILLER_23_3
*1309 FILLER_23_36
*1310 FILLER_23_48
*1311 FILLER_23_57
*1312 FILLER_23_69
*1313 FILLER_23_81
*1314 FILLER_23_93
*1315 FILLER_24_109
*1316 FILLER_24_117
*1317 FILLER_24_123
*1318 FILLER_24_130
*1319 FILLER_24_138
*1320 FILLER_24_147
*1321 FILLER_24_154
*1322 FILLER_24_161
*1323 FILLER_24_179
*1324 FILLER_24_19
*1325 FILLER_24_192
*1326 FILLER_24_204
*1327 FILLER_24_214
*1328 FILLER_24_226
*1329 FILLER_24_232
*1330 FILLER_24_242
*1331 FILLER_24_250
*1332 FILLER_24_253
*1333 FILLER_24_258
*1334 FILLER_24_27
*1335 FILLER_24_270
*1336 FILLER_24_295
*1337 FILLER_24_3
*1338 FILLER_24_32
*1339 FILLER_24_44
*1340 FILLER_24_56
*1341 FILLER_24_68
*1342 FILLER_24_7
*1343 FILLER_24_80
*1344 FILLER_24_85
*1345 FILLER_24_97
*1346 FILLER_25_105
*1347 FILLER_25_111
*1348 FILLER_25_113
*1349 FILLER_25_121
*1350 FILLER_25_131
*1351 FILLER_25_143
*1352 FILLER_25_151
*1353 FILLER_25_159
*1354 FILLER_25_167
*1355 FILLER_25_169
*1356 FILLER_25_173
*1357 FILLER_25_18
*1358 FILLER_25_180
*1359 FILLER_25_192
*1360 FILLER_25_204
*1361 FILLER_25_216
*1362 FILLER_25_225
*1363 FILLER_25_237
*1364 FILLER_25_249
*1365 FILLER_25_257
*1366 FILLER_25_261
*1367 FILLER_25_272
*1368 FILLER_25_285
*1369 FILLER_25_295
*1370 FILLER_25_3
*1371 FILLER_25_30
*1372 FILLER_25_42
*1373 FILLER_25_54
*1374 FILLER_25_57
*1375 FILLER_25_69
*1376 FILLER_25_81
*1377 FILLER_25_93
*1378 FILLER_26_109
*1379 FILLER_26_121
*1380 FILLER_26_133
*1381 FILLER_26_139
*1382 FILLER_26_148
*1383 FILLER_26_15
*1384 FILLER_26_152
*1385 FILLER_26_160
*1386 FILLER_26_180
*1387 FILLER_26_189
*1388 FILLER_26_195
*1389 FILLER_26_200
*1390 FILLER_26_212
*1391 FILLER_26_220
*1392 FILLER_26_232
*1393 FILLER_26_247
*1394 FILLER_26_251
*1395 FILLER_26_253
*1396 FILLER_26_257
*1397 FILLER_26_261
*1398 FILLER_26_268
*1399 FILLER_26_27
*1400 FILLER_26_29
*1401 FILLER_26_295
*1402 FILLER_26_3
*1403 FILLER_26_41
*1404 FILLER_26_53
*1405 FILLER_26_65
*1406 FILLER_26_77
*1407 FILLER_26_83
*1408 FILLER_26_85
*1409 FILLER_26_97
*1410 FILLER_27_105
*1411 FILLER_27_111
*1412 FILLER_27_113
*1413 FILLER_27_130
*1414 FILLER_27_140
*1415 FILLER_27_152
*1416 FILLER_27_162
*1417 FILLER_27_174
*1418 FILLER_27_186
*1419 FILLER_27_198
*1420 FILLER_27_20
*1421 FILLER_27_206
*1422 FILLER_27_210
*1423 FILLER_27_220
*1424 FILLER_27_231
*1425 FILLER_27_252
*1426 FILLER_27_264
*1427 FILLER_27_273
*1428 FILLER_27_279
*1429 FILLER_27_288
*1430 FILLER_27_295
*1431 FILLER_27_3
*1432 FILLER_27_32
*1433 FILLER_27_44
*1434 FILLER_27_57
*1435 FILLER_27_69
*1436 FILLER_27_8
*1437 FILLER_27_81
*1438 FILLER_27_93
*1439 FILLER_28_109
*1440 FILLER_28_113
*1441 FILLER_28_133
*1442 FILLER_28_139
*1443 FILLER_28_150
*1444 FILLER_28_158
*1445 FILLER_28_168
*1446 FILLER_28_175
*1447 FILLER_28_191
*1448 FILLER_28_195
*1449 FILLER_28_197
*1450 FILLER_28_219
*1451 FILLER_28_24
*1452 FILLER_28_243
*1453 FILLER_28_251
*1454 FILLER_28_269
*1455 FILLER_28_273
*1456 FILLER_28_29
*1457 FILLER_28_295
*1458 FILLER_28_41
*1459 FILLER_28_53
*1460 FILLER_28_65
*1461 FILLER_28_77
*1462 FILLER_28_83
*1463 FILLER_28_85
*1464 FILLER_28_97
*1465 FILLER_29_105
*1466 FILLER_29_111
*1467 FILLER_29_113
*1468 FILLER_29_119
*1469 FILLER_29_125
*1470 FILLER_29_131
*1471 FILLER_29_138
*1472 FILLER_29_150
*1473 FILLER_29_162
*1474 FILLER_29_174
*1475 FILLER_29_18
*1476 FILLER_29_182
*1477 FILLER_29_200
*1478 FILLER_29_218
*1479 FILLER_29_231
*1480 FILLER_29_241
*1481 FILLER_29_250
*1482 FILLER_29_258
*1483 FILLER_29_269
*1484 FILLER_29_277
*1485 FILLER_29_284
*1486 FILLER_29_288
*1487 FILLER_29_292
*1488 FILLER_29_298
*1489 FILLER_29_30
*1490 FILLER_29_42
*1491 FILLER_29_54
*1492 FILLER_29_57
*1493 FILLER_29_6
*1494 FILLER_29_69
*1495 FILLER_29_81
*1496 FILLER_29_93
*1497 FILLER_2_108
*1498 FILLER_2_115
*1499 FILLER_2_126
*1500 FILLER_2_13
*1501 FILLER_2_133
*1502 FILLER_2_139
*1503 FILLER_2_141
*1504 FILLER_2_148
*1505 FILLER_2_155
*1506 FILLER_2_163
*1507 FILLER_2_168
*1508 FILLER_2_17
*1509 FILLER_2_175
*1510 FILLER_2_183
*1511 FILLER_2_188
*1512 FILLER_2_197
*1513 FILLER_2_203
*1514 FILLER_2_21
*1515 FILLER_2_211
*1516 FILLER_2_215
*1517 FILLER_2_240
*1518 FILLER_2_256
*1519 FILLER_2_262
*1520 FILLER_2_266
*1521 FILLER_2_27
*1522 FILLER_2_29
*1523 FILLER_2_295
*1524 FILLER_2_36
*1525 FILLER_2_6
*1526 FILLER_2_65
*1527 FILLER_2_72
*1528 FILLER_2_76
*1529 FILLER_2_80
*1530 FILLER_2_85
*1531 FILLER_30_10
*1532 FILLER_30_109
*1533 FILLER_30_121
*1534 FILLER_30_133
*1535 FILLER_30_139
*1536 FILLER_30_141
*1537 FILLER_30_153
*1538 FILLER_30_17
*1539 FILLER_30_170
*1540 FILLER_30_181
*1541 FILLER_30_188
*1542 FILLER_30_197
*1543 FILLER_30_209
*1544 FILLER_30_221
*1545 FILLER_30_225
*1546 FILLER_30_232
*1547 FILLER_30_244
*1548 FILLER_30_25
*1549 FILLER_30_253
*1550 FILLER_30_265
*1551 FILLER_30_273
*1552 FILLER_30_29
*1553 FILLER_30_295
*1554 FILLER_30_3
*1555 FILLER_30_41
*1556 FILLER_30_53
*1557 FILLER_30_65
*1558 FILLER_30_77
*1559 FILLER_30_83
*1560 FILLER_30_85
*1561 FILLER_30_97
*1562 FILLER_31_105
*1563 FILLER_31_111
*1564 FILLER_31_113
*1565 FILLER_31_125
*1566 FILLER_31_137
*1567 FILLER_31_145
*1568 FILLER_31_151
*1569 FILLER_31_163
*1570 FILLER_31_167
*1571 FILLER_31_169
*1572 FILLER_31_177
*1573 FILLER_31_185
*1574 FILLER_31_197
*1575 FILLER_31_209
*1576 FILLER_31_214
*1577 FILLER_31_222
*1578 FILLER_31_225
*1579 FILLER_31_237
*1580 FILLER_31_24
*1581 FILLER_31_249
*1582 FILLER_31_257
*1583 FILLER_31_264
*1584 FILLER_31_272
*1585 FILLER_31_276
*1586 FILLER_31_281
*1587 FILLER_31_287
*1588 FILLER_31_294
*1589 FILLER_31_298
*1590 FILLER_31_36
*1591 FILLER_31_48
*1592 FILLER_31_57
*1593 FILLER_31_69
*1594 FILLER_31_81
*1595 FILLER_31_93
*1596 FILLER_32_109
*1597 FILLER_32_130
*1598 FILLER_32_138
*1599 FILLER_32_14
*1600 FILLER_32_141
*1601 FILLER_32_145
*1602 FILLER_32_154
*1603 FILLER_32_162
*1604 FILLER_32_174
*1605 FILLER_32_182
*1606 FILLER_32_190
*1607 FILLER_32_197
*1608 FILLER_32_205
*1609 FILLER_32_21
*1610 FILLER_32_213
*1611 FILLER_32_217
*1612 FILLER_32_222
*1613 FILLER_32_226
*1614 FILLER_32_233
*1615 FILLER_32_239
*1616 FILLER_32_245
*1617 FILLER_32_251
*1618 FILLER_32_253
*1619 FILLER_32_27
*1620 FILLER_32_270
*1621 FILLER_32_29
*1622 FILLER_32_295
*1623 FILLER_32_3
*1624 FILLER_32_41
*1625 FILLER_32_53
*1626 FILLER_32_65
*1627 FILLER_32_7
*1628 FILLER_32_77
*1629 FILLER_32_83
*1630 FILLER_32_85
*1631 FILLER_32_97
*1632 FILLER_33_105
*1633 FILLER_33_11
*1634 FILLER_33_111
*1635 FILLER_33_113
*1636 FILLER_33_117
*1637 FILLER_33_134
*1638 FILLER_33_154
*1639 FILLER_33_163
*1640 FILLER_33_167
*1641 FILLER_33_169
*1642 FILLER_33_177
*1643 FILLER_33_185
*1644 FILLER_33_193
*1645 FILLER_33_201
*1646 FILLER_33_218
*1647 FILLER_33_225
*1648 FILLER_33_229
*1649 FILLER_33_239
*1650 FILLER_33_259
*1651 FILLER_33_263
*1652 FILLER_33_273
*1653 FILLER_33_279
*1654 FILLER_33_281
*1655 FILLER_33_286
*1656 FILLER_33_290
*1657 FILLER_33_294
*1658 FILLER_33_298
*1659 FILLER_33_3
*1660 FILLER_33_34
*1661 FILLER_33_46
*1662 FILLER_33_54
*1663 FILLER_33_57
*1664 FILLER_33_69
*1665 FILLER_33_81
*1666 FILLER_33_93
*1667 FILLER_34_109
*1668 FILLER_34_117
*1669 FILLER_34_124
*1670 FILLER_34_131
*1671 FILLER_34_139
*1672 FILLER_34_144
*1673 FILLER_34_148
*1674 FILLER_34_154
*1675 FILLER_34_161
*1676 FILLER_34_169
*1677 FILLER_34_175
*1678 FILLER_34_181
*1679 FILLER_34_188
*1680 FILLER_34_204
*1681 FILLER_34_212
*1682 FILLER_34_217
*1683 FILLER_34_237
*1684 FILLER_34_24