*SPEF "ieee 1481-1999"
*DESIGN "wrapped_acorn_prng"
*DATE "11:11:11 Fri 11 11, 1111"
*VENDOR "OpenRCX"
*PROGRAM "Parallel Extraction"
*VERSION "1.0"
*DESIGN_FLOW "NAME_SCOPE LOCAL" "PIN_CAP NONE"
*DIVIDER /
*DELIMITER :
*BUS_DELIMITER []
*T_UNIT 1 NS
*C_UNIT 1 PF
*R_UNIT 1 OHM
*L_UNIT 1 HENRY

*NAME_MAP
*1 active
*2 io_in[0]
*3 io_in[10]
*4 io_in[11]
*5 io_in[12]
*6 io_in[13]
*7 io_in[14]
*8 io_in[15]
*9 io_in[16]
*10 io_in[17]
*11 io_in[18]
*12 io_in[19]
*13 io_in[1]
*14 io_in[20]
*15 io_in[21]
*16 io_in[22]
*17 io_in[23]
*18 io_in[24]
*19 io_in[25]
*20 io_in[26]
*21 io_in[27]
*22 io_in[28]
*23 io_in[29]
*24 io_in[2]
*25 io_in[30]
*26 io_in[31]
*27 io_in[32]
*28 io_in[33]
*29 io_in[34]
*30 io_in[35]
*31 io_in[36]
*32 io_in[37]
*33 io_in[3]
*34 io_in[4]
*35 io_in[5]
*36 io_in[6]
*37 io_in[7]
*38 io_in[8]
*39 io_in[9]
*40 io_oeb[0]
*41 io_oeb[10]
*42 io_oeb[11]
*43 io_oeb[12]
*44 io_oeb[13]
*45 io_oeb[14]
*46 io_oeb[15]
*47 io_oeb[16]
*48 io_oeb[17]
*49 io_oeb[18]
*50 io_oeb[19]
*51 io_oeb[1]
*52 io_oeb[20]
*53 io_oeb[21]
*54 io_oeb[22]
*55 io_oeb[23]
*56 io_oeb[24]
*57 io_oeb[25]
*58 io_oeb[26]
*59 io_oeb[27]
*60 io_oeb[28]
*61 io_oeb[29]
*62 io_oeb[2]
*63 io_oeb[30]
*64 io_oeb[31]
*65 io_oeb[32]
*66 io_oeb[33]
*67 io_oeb[34]
*68 io_oeb[35]
*69 io_oeb[36]
*70 io_oeb[37]
*71 io_oeb[3]
*72 io_oeb[4]
*73 io_oeb[5]
*74 io_oeb[6]
*75 io_oeb[7]
*76 io_oeb[8]
*77 io_oeb[9]
*78 io_out[0]
*79 io_out[10]
*80 io_out[11]
*81 io_out[12]
*82 io_out[13]
*83 io_out[14]
*84 io_out[15]
*85 io_out[16]
*86 io_out[17]
*87 io_out[18]
*88 io_out[19]
*89 io_out[1]
*90 io_out[20]
*91 io_out[21]
*92 io_out[22]
*93 io_out[23]
*94 io_out[24]
*95 io_out[25]
*96 io_out[26]
*97 io_out[27]
*98 io_out[28]
*99 io_out[29]
*100 io_out[2]
*101 io_out[30]
*102 io_out[31]
*103 io_out[32]
*104 io_out[33]
*105 io_out[34]
*106 io_out[35]
*107 io_out[36]
*108 io_out[37]
*109 io_out[3]
*110 io_out[4]
*111 io_out[5]
*112 io_out[6]
*113 io_out[7]
*114 io_out[8]
*115 io_out[9]
*116 la1_data_in[0]
*117 la1_data_in[10]
*118 la1_data_in[11]
*119 la1_data_in[12]
*120 la1_data_in[13]
*121 la1_data_in[14]
*122 la1_data_in[15]
*123 la1_data_in[16]
*124 la1_data_in[17]
*125 la1_data_in[18]
*126 la1_data_in[19]
*127 la1_data_in[1]
*128 la1_data_in[20]
*129 la1_data_in[21]
*130 la1_data_in[22]
*131 la1_data_in[23]
*132 la1_data_in[24]
*133 la1_data_in[25]
*134 la1_data_in[26]
*135 la1_data_in[27]
*136 la1_data_in[28]
*137 la1_data_in[29]
*138 la1_data_in[2]
*139 la1_data_in[30]
*140 la1_data_in[31]
*141 la1_data_in[3]
*142 la1_data_in[4]
*143 la1_data_in[5]
*144 la1_data_in[6]
*145 la1_data_in[7]
*146 la1_data_in[8]
*147 la1_data_in[9]
*148 la1_data_out[0]
*149 la1_data_out[10]
*150 la1_data_out[11]
*151 la1_data_out[12]
*152 la1_data_out[13]
*153 la1_data_out[14]
*154 la1_data_out[15]
*155 la1_data_out[16]
*156 la1_data_out[17]
*157 la1_data_out[18]
*158 la1_data_out[19]
*159 la1_data_out[1]
*160 la1_data_out[20]
*161 la1_data_out[21]
*162 la1_data_out[22]
*163 la1_data_out[23]
*164 la1_data_out[24]
*165 la1_data_out[25]
*166 la1_data_out[26]
*167 la1_data_out[27]
*168 la1_data_out[28]
*169 la1_data_out[29]
*170 la1_data_out[2]
*171 la1_data_out[30]
*172 la1_data_out[31]
*173 la1_data_out[3]
*174 la1_data_out[4]
*175 la1_data_out[5]
*176 la1_data_out[6]
*177 la1_data_out[7]
*178 la1_data_out[8]
*179 la1_data_out[9]
*180 la1_oenb[0]
*181 la1_oenb[10]
*182 la1_oenb[11]
*183 la1_oenb[12]
*184 la1_oenb[13]
*185 la1_oenb[14]
*186 la1_oenb[15]
*187 la1_oenb[16]
*188 la1_oenb[17]
*189 la1_oenb[18]
*190 la1_oenb[19]
*191 la1_oenb[1]
*192 la1_oenb[20]
*193 la1_oenb[21]
*194 la1_oenb[22]
*195 la1_oenb[23]
*196 la1_oenb[24]
*197 la1_oenb[25]
*198 la1_oenb[26]
*199 la1_oenb[27]
*200 la1_oenb[28]
*201 la1_oenb[29]
*202 la1_oenb[2]
*203 la1_oenb[30]
*204 la1_oenb[31]
*205 la1_oenb[3]
*206 la1_oenb[4]
*207 la1_oenb[5]
*208 la1_oenb[6]
*209 la1_oenb[7]
*210 la1_oenb[8]
*211 la1_oenb[9]
*214 wb_clk_i
*215 _0000_
*216 _0001_
*217 _0002_
*218 _0003_
*219 _0004_
*220 _0005_
*221 _0006_
*222 _0007_
*223 _0008_
*224 _0009_
*225 _0010_
*226 _0011_
*227 _0012_
*228 _0013_
*229 _0014_
*230 _0015_
*231 _0016_
*232 _0017_
*233 _0018_
*234 _0019_
*235 _0020_
*236 _0021_
*237 _0022_
*238 _0023_
*239 _0024_
*240 _0025_
*241 _0026_
*242 _0027_
*243 _0028_
*244 _0029_
*245 _0030_
*246 _0031_
*247 _0032_
*248 _0033_
*249 _0034_
*250 _0035_
*251 _0036_
*252 _0037_
*253 _0038_
*254 _0039_
*255 _0040_
*256 _0041_
*257 _0042_
*258 _0043_
*259 _0044_
*260 _0045_
*261 _0046_
*262 _0047_
*263 _0048_
*264 _0049_
*265 _0050_
*266 _0051_
*267 _0052_
*268 _0053_
*269 _0054_
*270 _0055_
*271 _0056_
*272 _0057_
*273 _0058_
*274 _0059_
*275 _0060_
*276 _0061_
*277 _0062_
*278 _0063_
*279 _0064_
*280 _0065_
*281 _0066_
*282 _0067_
*283 _0068_
*284 _0069_
*285 _0070_
*286 _0071_
*287 _0072_
*288 _0073_
*289 _0074_
*290 _0075_
*291 _0076_
*292 _0077_
*293 _0078_
*294 _0079_
*295 _0080_
*296 _0081_
*297 _0082_
*298 _0083_
*299 _0084_
*300 _0085_
*301 _0086_
*302 _0087_
*303 _0088_
*304 _0089_
*305 _0090_
*306 _0091_
*307 _0092_
*308 _0093_
*309 _0094_
*310 _0095_
*311 _0096_
*312 _0097_
*313 _0098_
*314 _0099_
*315 _0100_
*316 _0101_
*317 _0102_
*318 _0103_
*319 _0104_
*320 _0105_
*321 _0106_
*322 _0107_
*323 _0108_
*324 _0109_
*325 _0110_
*326 _0111_
*327 _0112_
*328 _0113_
*329 _0114_
*330 _0115_
*331 _0116_
*332 _0117_
*333 _0118_
*334 _0119_
*335 _0120_
*336 _0121_
*337 _0122_
*338 _0123_
*339 _0124_
*340 _0125_
*341 _0126_
*342 _0127_
*343 _0128_
*344 _0129_
*345 _0130_
*346 _0131_
*347 _0132_
*348 _0133_
*349 _0134_
*350 _0135_
*351 _0136_
*352 _0137_
*353 _0138_
*354 _0139_
*355 _0140_
*356 _0141_
*357 _0142_
*358 _0143_
*359 _0144_
*360 _0145_
*361 _0146_
*362 _0147_
*363 _0148_
*364 _0149_
*365 _0150_
*366 _0151_
*367 _0152_
*368 _0153_
*369 _0154_
*370 _0155_
*371 _0156_
*372 _0157_
*373 _0158_
*374 _0159_
*375 _0160_
*376 _0161_
*377 _0162_
*378 _0163_
*379 _0164_
*380 _0165_
*381 _0166_
*382 _0167_
*383 _0168_
*384 _0169_
*385 _0170_
*386 _0171_
*387 _0172_
*388 _0173_
*389 _0174_
*390 _0175_
*391 _0176_
*392 _0177_
*393 _0178_
*394 _0179_
*395 _0180_
*396 _0181_
*397 _0182_
*398 _0183_
*399 _0184_
*400 _0185_
*401 _0186_
*402 _0187_
*403 _0188_
*404 _0189_
*405 _0190_
*406 _0191_
*407 _0192_
*408 _0193_
*409 _0194_
*410 _0195_
*411 _0196_
*412 _0197_
*413 _0198_
*414 _0199_
*415 _0200_
*416 _0201_
*417 _0202_
*418 _0203_
*419 _0204_
*420 _0205_
*421 _0206_
*422 _0207_
*423 _0208_
*424 _0209_
*425 _0210_
*426 _0211_
*427 _0212_
*428 _0213_
*429 _0214_
*430 _0215_
*431 _0216_
*432 _0217_
*433 _0218_
*434 _0219_
*435 _0220_
*436 _0221_
*437 _0222_
*438 _0223_
*439 _0224_
*440 _0225_
*441 _0226_
*442 _0227_
*443 _0228_
*444 _0229_
*445 _0230_
*446 _0231_
*447 _0232_
*448 _0233_
*449 _0234_
*450 _0235_
*451 _0236_
*452 _0237_
*453 _0238_
*454 _0239_
*455 _0240_
*456 _0241_
*457 _0242_
*458 _0243_
*459 _0244_
*460 _0245_
*461 _0246_
*462 _0247_
*463 _0248_
*464 _0249_
*465 _0250_
*466 _0251_
*467 _0252_
*468 _0253_
*469 _0254_
*470 _0255_
*471 _0256_
*472 _0257_
*473 _0258_
*474 _0259_
*475 _0260_
*476 _0261_
*477 _0262_
*478 _0263_
*479 _0264_
*480 _0265_
*481 _0266_
*482 _0267_
*483 _0268_
*484 _0269_
*485 _0270_
*486 _0271_
*487 _0272_
*488 _0273_
*489 _0274_
*490 _0275_
*491 _0276_
*492 _0277_
*493 _0278_
*494 _0279_
*495 _0280_
*496 _0281_
*497 _0282_
*498 _0283_
*499 _0284_
*500 _0285_
*501 _0286_
*502 _0287_
*503 _0288_
*504 _0289_
*505 _0290_
*506 _0291_
*507 _0292_
*508 _0293_
*509 _0294_
*510 _0295_
*511 _0296_
*512 _0297_
*513 _0298_
*514 _0299_
*515 _0300_
*516 _0301_
*517 _0302_
*518 _0303_
*519 _0304_
*520 _0305_
*521 _0306_
*522 _0307_
*523 _0308_
*524 _0309_
*525 _0310_
*526 _0311_
*527 _0312_
*528 _0313_
*529 _0314_
*530 _0315_
*531 _0316_
*532 _0317_
*533 _0318_
*534 _0319_
*535 _0320_
*536 _0321_
*537 _0322_
*538 _0323_
*539 _0324_
*540 _0325_
*541 _0326_
*542 _0327_
*543 _0328_
*544 _0329_
*545 _0330_
*546 _0331_
*547 _0332_
*548 _0333_
*549 _0334_
*550 _0335_
*551 _0336_
*552 _0337_
*553 _0338_
*554 _0339_
*555 _0340_
*556 _0341_
*557 _0342_
*558 _0343_
*559 _0344_
*560 _0345_
*561 _0346_
*562 _0347_
*563 _0348_
*564 _0349_
*565 _0350_
*566 _0351_
*567 _0352_
*568 _0353_
*569 _0354_
*570 _0355_
*571 _0356_
*572 _0357_
*573 _0358_
*574 _0359_
*575 _0360_
*576 _0361_
*577 _0362_
*578 _0363_
*579 _0364_
*580 _0365_
*581 _0366_
*582 _0367_
*583 _0368_
*584 _0369_
*585 _0370_
*586 _0371_
*587 _0372_
*588 _0373_
*589 _0374_
*590 _0375_
*591 _0376_
*592 _0377_
*593 _0378_
*594 _0379_
*595 _0380_
*596 _0381_
*597 _0382_
*598 _0383_
*599 _0384_
*600 _0385_
*601 _0386_
*602 _0387_
*603 _0388_
*604 _0389_
*605 _0390_
*606 _0391_
*607 _0392_
*608 _0393_
*609 _0394_
*610 _0395_
*611 _0396_
*612 _0397_
*613 _0398_
*614 _0399_
*615 _0400_
*616 _0401_
*617 _0402_
*618 _0403_
*619 _0404_
*620 _0405_
*621 _0406_
*622 _0407_
*623 _0408_
*624 _0409_
*625 _0410_
*626 _0411_
*627 _0412_
*628 _0413_
*629 _0414_
*630 _0415_
*631 _0416_
*632 _0417_
*633 _0418_
*634 _0419_
*635 _0420_
*636 _0421_
*637 _0422_
*638 _0423_
*639 _0424_
*640 _0425_
*641 _0426_
*642 _0427_
*643 _0428_
*644 _0429_
*645 _0430_
*646 _0431_
*647 _0432_
*648 _0433_
*649 _0434_
*650 _0435_
*651 _0436_
*652 _0437_
*653 _0438_
*654 _0439_
*655 _0440_
*656 _0441_
*657 _0442_
*658 _0443_
*659 _0444_
*660 _0445_
*661 _0446_
*662 _0447_
*663 _0448_
*664 _0449_
*665 _0450_
*666 _0451_
*667 _0452_
*668 _0453_
*669 _0454_
*670 _0455_
*671 _0456_
*672 _0457_
*673 _0458_
*674 _0459_
*675 _0460_
*676 _0461_
*677 _0462_
*678 _0463_
*679 _0464_
*680 _0465_
*681 _0466_
*682 _0467_
*683 _0468_
*684 _0469_
*685 _0470_
*686 _0471_
*687 _0472_
*688 _0473_
*689 _0474_
*690 _0475_
*691 _0476_
*692 _0477_
*693 _0478_
*694 _0479_
*695 _0480_
*696 _0481_
*697 _0482_
*698 _0483_
*699 _0484_
*700 _0485_
*701 _0486_
*702 _0487_
*703 _0488_
*704 _0489_
*705 _0490_
*706 _0491_
*707 _0492_
*708 _0493_
*709 _0494_
*710 _0495_
*711 _0496_
*712 _0497_
*713 _0498_
*714 _0499_
*715 _0500_
*716 _0501_
*717 _0502_
*718 _0503_
*719 _0504_
*720 _0505_
*721 _0506_
*722 _0507_
*723 _0508_
*724 _0509_
*725 _0510_
*726 _0511_
*727 _0512_
*728 _0513_
*729 _0514_
*730 _0515_
*731 _0516_
*732 _0517_
*733 _0518_
*734 _0519_
*735 _0520_
*736 _0521_
*737 _0522_
*738 _0523_
*739 _0524_
*740 _0525_
*741 _0526_
*742 _0527_
*743 _0528_
*744 _0529_
*745 _0530_
*746 _0531_
*747 _0532_
*748 _0533_
*749 _0534_
*750 _0535_
*751 _0536_
*752 _0537_
*753 _0538_
*754 _0539_
*755 _0540_
*756 _0541_
*757 _0542_
*758 _0543_
*759 _0544_
*760 _0545_
*761 _0546_
*762 _0547_
*763 _0548_
*764 _0549_
*765 _0550_
*766 _0551_
*767 _0552_
*768 _0553_
*769 _0554_
*770 _0555_
*771 _0556_
*772 _0557_
*773 _0558_
*774 _0559_
*775 _0560_
*776 _0561_
*777 _0562_
*778 _0563_
*779 _0564_
*780 _0565_
*781 _0566_
*782 _0567_
*783 _0568_
*784 _0569_
*785 _0570_
*786 _0571_
*787 _0572_
*788 _0573_
*789 _0574_
*790 _0575_
*791 _0576_
*792 _0577_
*793 _0578_
*794 _0579_
*795 _0580_
*796 _0581_
*797 _0582_
*798 _0583_
*799 _0584_
*800 _0585_
*801 _0586_
*802 _0587_
*803 _0588_
*804 _0589_
*805 _0590_
*806 _0591_
*807 _0592_
*808 _0593_
*809 _0594_
*810 _0595_
*811 _0596_
*812 _0597_
*813 _0598_
*814 _0599_
*815 _0600_
*816 _0601_
*817 _0602_
*818 _0603_
*819 _0604_
*820 _0605_
*821 _0606_
*822 _0607_
*823 _0608_
*824 _0609_
*825 _0610_
*826 _0611_
*827 _0612_
*828 _0613_
*829 _0614_
*830 _0615_
*831 _0616_
*832 _0617_
*833 _0618_
*834 _0619_
*835 _0620_
*836 _0621_
*837 _0622_
*838 _0623_
*839 _0624_
*840 _0625_
*841 _0626_
*842 _0627_
*843 _0628_
*844 _0629_
*845 _0630_
*846 _0631_
*847 _0632_
*848 _0633_
*849 _0634_
*850 _0635_
*851 _0636_
*852 _0637_
*853 _0638_
*854 _0639_
*855 _0640_
*856 _0641_
*857 _0642_
*858 _0643_
*859 _0644_
*860 _0645_
*861 _0646_
*862 _0647_
*863 _0648_
*864 _0649_
*865 _0650_
*866 _0651_
*867 _0652_
*868 _0653_
*869 _0654_
*870 _0655_
*871 _0656_
*872 _0657_
*873 _0658_
*874 _0659_
*875 _0660_
*876 _0661_
*877 _0662_
*878 _0663_
*879 _0664_
*880 _0665_
*881 _0666_
*882 _0667_
*883 _0668_
*884 _0669_
*885 _0670_
*886 _0671_
*887 _0672_
*888 _0673_
*889 _0674_
*890 _0675_
*891 _0676_
*892 _0677_
*893 _0678_
*894 _0679_
*895 _0680_
*896 _0681_
*897 _0682_
*898 _0683_
*899 _0684_
*900 _0685_
*901 _0686_
*902 _0687_
*903 _0688_
*904 _0689_
*905 _0690_
*906 _0691_
*907 _0692_
*908 _0693_
*909 _0694_
*910 _0695_
*911 _0696_
*912 _0697_
*913 _0698_
*914 _0699_
*915 _0700_
*916 _0701_
*917 _0702_
*918 _0703_
*919 _0704_
*920 _0705_
*921 _0706_
*922 _0707_
*923 _0708_
*924 _0709_
*925 _0710_
*926 _0711_
*927 _0712_
*928 _0713_
*929 _0714_
*930 _0715_
*931 _0716_
*932 _0717_
*933 _0718_
*934 _0719_
*935 _0720_
*936 _0721_
*937 _0722_
*938 _0723_
*939 _0724_
*940 _0725_
*941 _0726_
*942 _0727_
*943 _0728_
*944 _0729_
*945 _0730_
*946 _0731_
*947 _0732_
*948 _0733_
*949 _0734_
*950 _0735_
*951 _0736_
*952 _0737_
*953 _0738_
*954 _0739_
*955 _0740_
*956 _0741_
*957 _0742_
*958 _0743_
*959 _0744_
*960 _0745_
*961 _0746_
*962 _0747_
*963 _0748_
*964 _0749_
*965 _0750_
*966 _0751_
*967 _0752_
*968 _0753_
*969 _0754_
*970 _0755_
*971 _0756_
*972 _0757_
*973 _0758_
*974 _0759_
*975 _0760_
*976 _0761_
*977 _0762_
*978 _0763_
*979 _0764_
*980 _0765_
*981 _0766_
*982 _0767_
*983 _0768_
*984 _0769_
*985 _0770_
*986 _0771_
*987 _0772_
*988 _0773_
*989 _0774_
*990 _0775_
*991 _0776_
*992 _0777_
*993 _0778_
*994 _0779_
*995 _0780_
*996 _0781_
*997 _0782_
*998 _0783_
*999 _0784_
*1000 _0785_
*1001 _0786_
*1002 _0787_
*1003 _0788_
*1004 _0789_
*1005 _0790_
*1006 _0791_
*1007 _0792_
*1008 _0793_
*1009 _0794_
*1010 _0795_
*1011 _0796_
*1012 _0797_
*1013 _0798_
*1014 _0799_
*1015 _0800_
*1016 _0801_
*1017 _0802_
*1018 _0803_
*1019 _0804_
*1020 _0805_
*1021 _0806_
*1022 _0807_
*1023 _0808_
*1024 _0809_
*1025 _0810_
*1026 _0811_
*1027 _0812_
*1028 _0813_
*1029 _0814_
*1030 _0815_
*1031 _0816_
*1032 _0817_
*1033 _0818_
*1034 _0819_
*1035 _0820_
*1036 _0821_
*1037 _0822_
*1038 _0823_
*1039 _0824_
*1040 _0825_
*1041 _0826_
*1042 _0827_
*1043 _0828_
*1044 _0829_
*1045 _0830_
*1046 _0831_
*1047 _0832_
*1048 _0833_
*1049 _0834_
*1050 _0835_
*1051 _0836_
*1052 _0837_
*1053 _0838_
*1054 _0839_
*1055 _0840_
*1056 _0841_
*1057 _0842_
*1058 _0843_
*1059 _0844_
*1060 _0845_
*1061 _0846_
*1062 _0847_
*1063 _0848_
*1064 _0849_
*1065 _0850_
*1066 _0851_
*1067 _0852_
*1068 _0853_
*1069 _0854_
*1070 _0855_
*1071 _0856_
*1072 _0857_
*1073 _0858_
*1074 _0859_
*1075 _0860_
*1076 _0861_
*1077 _0862_
*1078 _0863_
*1079 _0864_
*1080 _0865_
*1081 _0866_
*1082 _0867_
*1083 _0868_
*1084 _0869_
*1085 _0870_
*1086 _0871_
*1087 _0872_
*1088 _0873_
*1089 _0874_
*1090 _0875_
*1091 _0876_
*1092 _0877_
*1093 _0878_
*1094 _0879_
*1095 _0880_
*1096 _0881_
*1097 _0882_
*1098 _0883_
*1099 _0884_
*1100 _0885_
*1101 _0886_
*1102 _0887_
*1103 _0888_
*1104 _0889_
*1105 _0890_
*1106 _0891_
*1107 _0892_
*1108 _0893_
*1109 _0894_
*1110 _0895_
*1111 _0896_
*1112 _0897_
*1113 _0898_
*1114 _0899_
*1115 _0900_
*1116 _0901_
*1117 _0902_
*1118 _0903_
*1119 _0904_
*1120 _0905_
*1121 _0906_
*1122 _0907_
*1123 _0908_
*1124 _0909_
*1125 _0910_
*1126 _0911_
*1127 _0912_
*1128 _0913_
*1129 _0914_
*1130 _0915_
*1131 _0916_
*1132 _0917_
*1133 _0918_
*1134 _0919_
*1135 _0920_
*1136 _0921_
*1137 _0922_
*1138 _0923_
*1139 _0924_
*1140 _0925_
*1141 _0926_
*1142 _0927_
*1143 _0928_
*1144 _0929_
*1145 _0930_
*1146 _0931_
*1147 _0932_
*1148 _0933_
*1149 _0934_
*1150 _0935_
*1151 _0936_
*1152 _0937_
*1153 _0938_
*1154 _0939_
*1155 _0940_
*1156 _0941_
*1157 _0942_
*1158 _0943_
*1159 _0944_
*1160 _0945_
*1161 _0946_
*1162 _0947_
*1163 _0948_
*1164 _0949_
*1165 _0950_
*1166 _0951_
*1167 _0952_
*1168 _0953_
*1169 _0954_
*1170 _0955_
*1171 _0956_
*1172 _0957_
*1173 _0958_
*1174 _0959_
*1175 _0960_
*1176 _0961_
*1177 _0962_
*1178 _0963_
*1179 _0964_
*1180 _0965_
*1181 _0966_
*1182 _0967_
*1183 _0968_
*1184 _0969_
*1185 _0970_
*1186 _0971_
*1187 _0972_
*1188 _0973_
*1189 _0974_
*1190 _0975_
*1191 _0976_
*1192 _0977_
*1193 _0978_
*1194 _0979_
*1195 _0980_
*1196 _0981_
*1197 _0982_
*1198 _0983_
*1199 _0984_
*1200 _0985_
*1201 _0986_
*1202 _0987_
*1203 _0988_
*1204 _0989_
*1205 _0990_
*1206 _0991_
*1207 _0992_
*1208 _0993_
*1209 _0994_
*1210 _0995_
*1211 _0996_
*1212 _0997_
*1213 _0998_
*1214 _0999_
*1215 _1000_
*1216 _1001_
*1217 _1002_
*1218 _1003_
*1219 _1004_
*1220 _1005_
*1221 _1006_
*1222 _1007_
*1223 _1008_
*1224 _1009_
*1225 _1010_
*1226 _1011_
*1227 _1012_
*1228 _1013_
*1229 _1014_
*1230 _1015_
*1231 _1016_
*1232 _1017_
*1233 _1018_
*1234 _1019_
*1235 _1020_
*1236 _1021_
*1237 _1022_
*1238 _1023_
*1239 _1024_
*1240 _1025_
*1241 _1026_
*1242 _1027_
*1243 _1028_
*1244 _1029_
*1245 _1030_
*1246 _1031_
*1247 _1032_
*1248 _1033_
*1249 _1034_
*1250 _1035_
*1251 _1036_
*1252 _1037_
*1253 _1038_
*1254 _1039_
*1255 _1040_
*1256 _1041_
*1257 _1042_
*1258 _1043_
*1259 _1044_
*1260 _1045_
*1261 _1046_
*1262 _1047_
*1263 _1048_
*1264 _1049_
*1265 _1050_
*1266 _1051_
*1267 _1052_
*1268 _1053_
*1269 _1054_
*1270 _1055_
*1271 _1056_
*1272 _1057_
*1273 _1058_
*1274 _1059_
*1275 _1060_
*1276 _1061_
*1277 _1062_
*1278 _1063_
*1279 _1064_
*1280 _1065_
*1281 _1066_
*1282 _1067_
*1283 _1068_
*1284 _1069_
*1285 _1070_
*1286 _1071_
*1287 _1072_
*1288 _1073_
*1289 _1074_
*1290 _1075_
*1291 _1076_
*1292 _1077_
*1293 _1078_
*1294 _1079_
*1295 _1080_
*1296 _1081_
*1297 _1082_
*1298 _1083_
*1299 _1084_
*1300 _1085_
*1301 _1086_
*1302 _1087_
*1303 _1088_
*1304 _1089_
*1305 _1090_
*1306 _1091_
*1307 _1092_
*1308 _1093_
*1309 _1094_
*1310 _1095_
*1311 _1096_
*1312 _1097_
*1313 _1098_
*1314 _1099_
*1315 _1100_
*1316 _1101_
*1317 _1102_
*1318 _1103_
*1319 _1104_
*1320 _1105_
*1321 _1106_
*1322 _1107_
*1323 _1108_
*1324 _1109_
*1325 _1110_
*1326 _1111_
*1327 _1112_
*1328 _1113_
*1329 _1114_
*1330 _1115_
*1331 _1116_
*1332 _1117_
*1333 _1118_
*1334 _1119_
*1335 _1120_
*1336 _1121_
*1337 _1122_
*1338 _1123_
*1339 _1124_
*1340 _1125_
*1341 _1126_
*1342 _1127_
*1343 _1128_
*1344 _1129_
*1345 _1130_
*1346 _1131_
*1347 _1132_
*1348 _1133_
*1349 _1134_
*1350 _1135_
*1351 _1136_
*1352 _1137_
*1353 _1138_
*1354 _1139_
*1355 _1140_
*1356 _1141_
*1357 _1142_
*1358 _1143_
*1359 _1144_
*1360 _1145_
*1361 _1146_
*1362 _1147_
*1363 _1148_
*1364 _1149_
*1365 _1150_
*1366 _1151_
*1367 _1152_
*1368 _1153_
*1369 _1154_
*1370 _1155_
*1371 _1156_
*1372 _1157_
*1373 _1158_
*1374 _1159_
*1375 _1160_
*1376 _1161_
*1377 _1162_
*1378 _1163_
*1379 _1164_
*1380 _1165_
*1381 _1166_
*1382 _1167_
*1383 _1168_
*1384 _1169_
*1385 _1170_
*1386 _1171_
*1387 _1172_
*1388 _1173_
*1389 _1174_
*1390 _1175_
*1391 _1176_
*1392 _1177_
*1393 _1178_
*1394 _1179_
*1395 _1180_
*1396 _1181_
*1397 _1182_
*1398 _1183_
*1399 _1184_
*1400 _1185_
*1401 _1186_
*1402 _1187_
*1403 _1188_
*1404 _1189_
*1405 _1190_
*1406 _1191_
*1407 _1192_
*1408 _1193_
*1409 _1194_
*1410 _1195_
*1411 _1196_
*1412 _1197_
*1413 _1198_
*1414 _1199_
*1415 _1200_
*1416 _1201_
*1417 _1202_
*1418 _1203_
*1419 _1204_
*1420 _1205_
*1421 _1206_
*1422 _1207_
*1423 _1208_
*1424 _1209_
*1425 _1210_
*1426 _1211_
*1427 _1212_
*1428 _1213_
*1429 _1214_
*1430 _1215_
*1431 _1216_
*1432 _1217_
*1433 _1218_
*1434 _1219_
*1435 _1220_
*1436 _1221_
*1437 _1222_
*1438 _1223_
*1439 _1224_
*1440 _1225_
*1441 _1226_
*1442 _1227_
*1443 _1228_
*1444 _1229_
*1445 _1230_
*1446 _1231_
*1447 _1232_
*1448 _1233_
*1449 _1234_
*1450 _1235_
*1451 _1236_
*1452 _1237_
*1453 _1238_
*1454 _1239_
*1455 _1240_
*1456 _1241_
*1457 _1242_
*1458 _1243_
*1459 _1244_
*1460 _1245_
*1461 _1246_
*1462 _1247_
*1463 _1248_
*1464 _1249_
*1465 _1250_
*1466 _1251_
*1467 _1252_
*1468 _1253_
*1469 _1254_
*1470 _1255_
*1471 _1256_
*1472 _1257_
*1473 _1258_
*1474 _1259_
*1475 _1260_
*1476 _1261_
*1477 _1262_
*1478 _1263_
*1479 _1264_
*1480 _1265_
*1481 _1266_
*1482 _1267_
*1483 _1268_
*1484 _1269_
*1485 _1270_
*1486 _1271_
*1487 _1272_
*1488 _1273_
*1489 _1274_
*1490 _1275_
*1491 _1276_
*1492 _1277_
*1493 _1278_
*1494 _1279_
*1495 _1280_
*1496 _1281_
*1497 _1282_
*1498 _1283_
*1499 _1284_
*1500 _1285_
*1501 _1286_
*1502 _1287_
*1503 _1288_
*1504 _1289_
*1505 _1290_
*1506 _1291_
*1507 _1292_
*1508 _1293_
*1509 _1294_
*1510 _1295_
*1511 _1296_
*1512 _1297_
*1513 _1298_
*1514 _1299_
*1515 _1300_
*1516 _1301_
*1517 _1302_
*1518 _1303_
*1519 _1304_
*1520 _1305_
*1521 _1306_
*1522 _1307_
*1523 _1308_
*1524 _1309_
*1525 _1310_
*1526 _1311_
*1527 _1312_
*1528 _1313_
*1529 _1314_
*1530 _1315_
*1531 _1316_
*1532 _1317_
*1533 _1318_
*1534 _1319_
*1535 _1320_
*1536 _1321_
*1537 _1322_
*1538 _1323_
*1539 _1324_
*1540 _1325_
*1541 _1326_
*1542 _1327_
*1543 _1328_
*1544 _1329_
*1545 _1330_
*1546 _1331_
*1547 _1332_
*1548 _1333_
*1549 _1334_
*1550 _1335_
*1551 _1336_
*1552 _1337_
*1553 _1338_
*1554 _1339_
*1555 _1340_
*1556 _1341_
*1557 _1342_
*1558 _1343_
*1559 _1344_
*1560 _1345_
*1561 _1346_
*1562 _1347_
*1563 _1348_
*1564 _1349_
*1565 _1350_
*1566 _1351_
*1567 _1352_
*1568 _1353_
*1569 _1354_
*1570 _1355_
*1571 _1356_
*1572 _1357_
*1573 _1358_
*1574 _1359_
*1575 _1360_
*1576 _1361_
*1577 _1362_
*1578 _1363_
*1579 _1364_
*1580 _1365_
*1581 _1366_
*1582 _1367_
*1583 _1368_
*1584 _1369_
*1585 _1370_
*1586 _1371_
*1587 _1372_
*1588 _1373_
*1589 _1374_
*1590 _1375_
*1591 _1376_
*1592 _1377_
*1593 _1378_
*1594 _1379_
*1595 _1380_
*1596 _1381_
*1597 _1382_
*1598 _1383_
*1599 _1384_
*1600 _1385_
*1601 _1386_
*1602 _1387_
*1603 _1388_
*1604 _1389_
*1605 _1390_
*1606 _1391_
*1607 _1392_
*1608 _1393_
*1609 _1394_
*1610 _1395_
*1611 _1396_
*1612 _1397_
*1613 _1398_
*1614 _1399_
*1615 _1400_
*1616 _1401_
*1617 _1402_
*1618 _1403_
*1619 _1404_
*1620 _1405_
*1621 _1406_
*1622 _1407_
*1623 _1408_
*1624 _1409_
*1625 _1410_
*1626 _1411_
*1627 _1412_
*1628 _1413_
*1629 _1414_
*1630 _1415_
*1631 _1416_
*1632 _1417_
*1633 _1418_
*1634 _1419_
*1635 _1420_
*1636 _1421_
*1637 _1422_
*1638 _1423_
*1639 _1424_
*1640 _1425_
*1641 _1426_
*1642 _1427_
*1643 _1428_
*1644 _1429_
*1645 _1430_
*1646 _1431_
*1647 _1432_
*1648 _1433_
*1649 _1434_
*1650 _1435_
*1651 _1436_
*1652 _1437_
*1653 _1438_
*1654 _1439_
*1655 _1440_
*1656 _1441_
*1657 _1442_
*1658 _1443_
*1659 _1444_
*1660 _1445_
*1661 _1446_
*1662 _1447_
*1663 _1448_
*1664 _1449_
*1665 _1450_
*1666 _1451_
*1667 _1452_
*1668 _1453_
*1669 _1454_
*1670 _1455_
*1671 _1456_
*1672 _1457_
*1673 _1458_
*1674 _1459_
*1675 _1460_
*1676 _1461_
*1677 _1462_
*1678 _1463_
*1679 _1464_
*1680 _1465_
*1681 _1466_
*1682 _1467_
*1683 _1468_
*1684 _1469_
*1685 _1470_
*1686 _1471_
*1687 _1472_
*1688 _1473_
*1689 _1474_
*1690 _1475_
*1691 _1476_
*1692 _1477_
*1693 _1478_
*1694 _1479_
*1695 _1480_
*1696 _1481_
*1697 _1482_
*1698 _1483_
*1699 _1484_
*1700 _1485_
*1701 _1486_
*1702 _1487_
*1703 _1488_
*1704 _1489_
*1705 _1490_
*1706 _1491_
*1707 _1492_
*1708 _1493_
*1709 _1494_
*1710 _1495_
*1711 _1496_
*1712 _1497_
*1713 _1498_
*1714 _1499_
*1715 _1500_
*1716 _1501_
*1717 _1502_
*1718 _1503_
*1719 _1504_
*1720 _1505_
*1721 _1506_
*1722 _1507_
*1723 _1508_
*1724 _1509_
*1725 _1510_
*1726 _1511_
*1727 _1512_
*1728 _1513_
*1729 _1514_
*1730 _1515_
*1731 _1516_
*1732 _1517_
*1733 _1518_
*1734 _1519_
*1735 _1520_
*1736 _1521_
*1737 _1522_
*1738 _1523_
*1739 _1524_
*1740 _1525_
*1741 _1526_
*1742 _1527_
*1743 _1528_
*1744 _1529_
*1745 _1530_
*1746 _1531_
*1747 _1532_
*1748 _1533_
*1749 _1534_
*1750 _1535_
*1751 _1536_
*1752 _1537_
*1753 _1538_
*1754 _1539_
*1755 _1540_
*1756 _1541_
*1757 _1542_
*1758 _1543_
*1759 _1544_
*1760 _1545_
*1761 _1546_
*1762 _1547_
*1763 _1548_
*1764 _1549_
*1765 _1550_
*1766 _1551_
*1767 _1552_
*1768 _1553_
*1769 _1554_
*1770 _1555_
*1771 _1556_
*1772 _1557_
*1773 _1558_
*1774 _1559_
*1775 _1560_
*1776 _1561_
*1777 _1562_
*1778 _1563_
*1779 _1564_
*1780 _1565_
*1781 _1566_
*1782 _1567_
*1783 _1568_
*1784 _1569_
*1785 _1570_
*1786 _1571_
*1787 _1572_
*1788 _1573_
*1789 _1574_
*1790 _1575_
*1791 _1576_
*1792 _1577_
*1793 _1578_
*1794 _1579_
*1795 _1580_
*1796 _1581_
*1797 _1582_
*1798 _1583_
*1799 _1584_
*1800 _1585_
*1801 _1586_
*1802 _1587_
*1803 _1588_
*1804 _1589_
*1805 _1590_
*1806 _1591_
*1807 _1592_
*1808 _1593_
*1809 _1594_
*1810 _1595_
*1811 _1596_
*1812 _1597_
*1813 _1598_
*1814 _1599_
*1815 _1600_
*1816 _1601_
*1817 _1602_
*1818 _1603_
*1819 _1604_
*1820 _1605_
*1821 _1606_
*1822 _1607_
*1823 _1608_
*1824 _1609_
*1825 _1610_
*1826 _1611_
*1827 _1612_
*1828 _1613_
*1829 _1614_
*1830 _1615_
*1831 _1616_
*1832 _1617_
*1833 _1618_
*1834 _1619_
*1835 _1620_
*1836 _1621_
*1837 _1622_
*1838 _1623_
*1839 _1624_
*1840 _1625_
*1841 _1626_
*1842 _1627_
*1843 _1628_
*1844 _1629_
*1845 _1630_
*1846 _1631_
*1847 _1632_
*1848 _1633_
*1849 _1634_
*1850 _1635_
*1851 _1636_
*1852 _1637_
*1853 _1638_
*1854 _1639_
*1855 _1640_
*1856 _1641_
*1857 _1642_
*1858 _1643_
*1859 _1644_
*1860 _1645_
*1861 _1646_
*1862 _1647_
*1863 _1648_
*1864 _1649_
*1865 _1650_
*1866 _1651_
*1867 _1652_
*1868 _1653_
*1869 _1654_
*1870 _1655_
*1871 _1656_
*1872 _1657_
*1873 _1658_
*1874 _1659_
*1875 _1660_
*1876 _1661_
*1877 _1662_
*1878 _1663_
*1879 _1664_
*1880 _1665_
*1881 _1666_
*1882 _1667_
*1883 _1668_
*1884 _1669_
*1885 _1670_
*1886 _1671_
*1887 _1672_
*1888 _1673_
*1889 _1674_
*1890 _1675_
*1891 _1676_
*1892 _1677_
*1893 _1678_
*1894 _1679_
*1895 _1680_
*1896 _1681_
*1897 _1682_
*1898 _1683_
*1899 _1684_
*1900 _1685_
*1901 _1686_
*1902 _1687_
*1903 _1688_
*1904 _1689_
*1905 _1690_
*1906 _1691_
*1907 _1692_
*1908 _1693_
*1909 _1694_
*1910 _1695_
*1911 _1696_
*1912 _1697_
*1913 _1698_
*1914 _1699_
*1915 _1700_
*1916 _1701_
*1917 _1702_
*1918 _1703_
*1919 _1704_
*1920 _1705_
*1921 _1706_
*1922 _1707_
*1923 _1708_
*1924 _1709_
*1925 _1710_
*1926 _1711_
*1927 _1712_
*1928 _1713_
*1929 _1714_
*1930 _1715_
*1931 _1716_
*1932 _1717_
*1933 _1718_
*1934 _1719_
*1935 _1720_
*1936 _1721_
*1937 _1722_
*1938 _1723_
*1939 _1724_
*1940 _1725_
*1941 _1726_
*1942 _1727_
*1943 _1728_
*1944 _1729_
*1945 _1730_
*1946 _1731_
*1947 _1732_
*1948 _1733_
*1949 _1734_
*1950 _1735_
*1951 _1736_
*1952 _1737_
*1953 _1738_
*1954 _1739_
*1955 _1740_
*1956 _1741_
*1957 _1742_
*1958 _1743_
*1959 _1744_
*1960 _1745_
*1961 _1746_
*1962 _1747_
*1963 _1748_
*1964 _1749_
*1965 _1750_
*1966 _1751_
*1967 _1752_
*1968 _1753_
*1969 _1754_
*1970 _1755_
*1971 _1756_
*1972 _1757_
*1973 _1758_
*1974 _1759_
*1975 _1760_
*1976 _1761_
*1977 _1762_
*1978 _1763_
*1979 _1764_
*1980 _1765_
*1981 _1766_
*1982 _1767_
*1983 _1768_
*1984 _1769_
*1985 _1770_
*1986 _1771_
*1987 _1772_
*1988 _1773_
*1989 _1774_
*1990 _1775_
*1991 _1776_
*1992 _1777_
*1993 _1778_
*1994 _1779_
*1995 _1780_
*1996 _1781_
*1997 _1782_
*1998 _1783_
*1999 _1784_
*2000 _1785_
*2001 _1786_
*2002 _1787_
*2003 _1788_
*2004 _1789_
*2005 _1790_
*2006 _1791_
*2007 _1792_
*2008 _1793_
*2009 _1794_
*2010 _1795_
*2011 _1796_
*2012 _1797_
*2013 _1798_
*2014 _1799_
*2015 _1800_
*2016 _1801_
*2017 _1802_
*2018 _1803_
*2019 _1804_
*2020 _1805_
*2021 _1806_
*2022 _1807_
*2023 _1808_
*2024 _1809_
*2025 _1810_
*2026 _1811_
*2027 _1812_
*2028 _1813_
*2029 _1814_
*2030 _1815_
*2031 _1816_
*2032 _1817_
*2033 _1818_
*2034 _1819_
*2035 _1820_
*2036 _1821_
*2037 _1822_
*2038 _1823_
*2039 _1824_
*2040 _1825_
*2041 _1826_
*2042 _1827_
*2043 _1828_
*2044 _1829_
*2045 _1830_
*2046 _1831_
*2047 _1832_
*2048 _1833_
*2049 _1834_
*2050 _1835_
*2051 _1836_
*2052 _1837_
*2053 _1838_
*2054 _1839_
*2055 _1840_
*2056 _1841_
*2057 _1842_
*2058 _1843_
*2059 _1844_
*2060 _1845_
*2061 _1846_
*2062 _1847_
*2063 _1848_
*2064 _1849_
*2065 _1850_
*2066 _1851_
*2067 _1852_
*2068 _1853_
*2069 _1854_
*2070 _1855_
*2071 _1856_
*2072 _1857_
*2073 _1858_
*2074 _1859_
*2075 _1860_
*2076 _1861_
*2077 _1862_
*2078 _1863_
*2079 _1864_
*2080 _1865_
*2081 _1866_
*2082 _1867_
*2083 _1868_
*2084 _1869_
*2085 _1870_
*2086 _1871_
*2087 _1872_
*2088 _1873_
*2089 _1874_
*2090 _1875_
*2091 _1876_
*2092 _1877_
*2093 _1878_
*2094 _1879_
*2095 _1880_
*2096 _1881_
*2097 _1882_
*2098 _1883_
*2099 _1884_
*2100 _1885_
*2101 _1886_
*2102 _1887_
*2103 _1888_
*2104 _1889_
*2105 _1890_
*2106 _1891_
*2107 _1892_
*2108 _1893_
*2109 _1894_
*2110 _1895_
*2111 _1896_
*2112 _1897_
*2113 _1898_
*2114 _1899_
*2115 _1900_
*2116 _1901_
*2117 _1902_
*2118 _1903_
*2119 _1904_
*2120 _1905_
*2121 _1906_
*2122 _1907_
*2123 _1908_
*2124 _1909_
*2125 _1910_
*2126 _1911_
*2127 _1912_
*2128 _1913_
*2129 _1914_
*2130 _1915_
*2131 _1916_
*2132 _1917_
*2133 _1918_
*2134 _1919_
*2135 _1920_
*2136 _1921_
*2137 _1922_
*2138 _1923_
*2139 _1924_
*2140 _1925_
*2141 _1926_
*2142 _1927_
*2143 _1928_
*2144 _1929_
*2145 _1930_
*2146 _1931_
*2147 _1932_
*2148 _1933_
*2149 _1934_
*2150 _1935_
*2151 _1936_
*2152 _1937_
*2153 _1938_
*2154 _1939_
*2155 _1940_
*2156 _1941_
*2157 _1942_
*2158 _1943_
*2159 _1944_
*2160 _1945_
*2161 _1946_
*2162 _1947_
*2163 _1948_
*2164 _1949_
*2165 _1950_
*2166 _1951_
*2167 _1952_
*2168 _1953_
*2169 _1954_
*2170 _1955_
*2171 _1956_
*2172 _1957_
*2173 _1958_
*2174 _1959_
*2175 _1960_
*2176 _1961_
*2177 _1962_
*2178 _1963_
*2179 _1964_
*2180 _1965_
*2181 _1966_
*2182 _1967_
*2183 _1968_
*2184 _1969_
*2185 _1970_
*2186 _1971_
*2187 _1972_
*2188 _1973_
*2189 _1974_
*2190 _1975_
*2191 _1976_
*2192 _1977_
*2193 _1978_
*2194 _1979_
*2195 _1980_
*2196 _1981_
*2197 _1982_
*2198 _1983_
*2199 _1984_
*2200 _1985_
*2201 _1986_
*2202 _1987_
*2203 _1988_
*2204 _1989_
*2205 _1990_
*2206 _1991_
*2207 _1992_
*2208 _1993_
*2209 _1994_
*2210 _1995_
*2211 _1996_
*2212 _1997_
*2213 _1998_
*2214 _1999_
*2215 _2000_
*2216 _2001_
*2217 _2002_
*2218 _2003_
*2219 _2004_
*2220 _2005_
*2221 _2006_
*2222 _2007_
*2223 _2008_
*2224 _2009_
*2225 _2010_
*2226 _2011_
*2227 _2012_
*2228 _2013_
*2229 _2014_
*2230 _2015_
*2231 _2016_
*2232 _2017_
*2233 _2018_
*2234 _2019_
*2235 _2020_
*2236 _2021_
*2237 _2022_
*2238 _2023_
*2239 _2024_
*2240 _2025_
*2241 _2026_
*2242 _2027_
*2243 _2028_
*2244 _2029_
*2245 _2030_
*2246 _2031_
*2247 _2032_
*2248 _2033_
*2249 _2034_
*2250 _2035_
*2251 _2036_
*2252 _2037_
*2253 _2038_
*2254 _2039_
*2255 _2040_
*2256 _2041_
*2257 _2042_
*2258 _2043_
*2259 _2044_
*2260 _2045_
*2261 _2046_
*2262 _2047_
*2263 _2048_
*2264 _2049_
*2265 _2050_
*2266 _2051_
*2267 _2052_
*2268 _2053_
*2269 _2054_
*2270 _2055_
*2271 _2056_
*2272 _2057_
*2273 _2058_
*2274 _2059_
*2275 _2060_
*2276 _2061_
*2277 _2062_
*2278 _2063_
*2279 _2064_
*2280 _2065_
*2281 _2066_
*2282 _2067_