*SPEF "ieee 1481-1999"
*DESIGN "wrapped_function_generator"
*DATE "11:11:11 Fri 11 11, 1111"
*VENDOR "OpenRCX"
*PROGRAM "Parallel Extraction"
*VERSION "1.0"
*DESIGN_FLOW "NAME_SCOPE LOCAL" "PIN_CAP NONE"
*DIVIDER /
*DELIMITER :
*BUS_DELIMITER []
*T_UNIT 1 NS
*C_UNIT 1 PF
*R_UNIT 1 OHM
*L_UNIT 1 HENRY

*NAME_MAP
*1 active
*2 io_in[0]
*3 io_in[10]
*4 io_in[11]
*5 io_in[12]
*6 io_in[13]
*7 io_in[14]
*8 io_in[15]
*9 io_in[16]
*10 io_in[17]
*11 io_in[18]
*12 io_in[19]
*13 io_in[1]
*14 io_in[20]
*15 io_in[21]
*16 io_in[22]
*17 io_in[23]
*18 io_in[24]
*19 io_in[25]
*20 io_in[26]
*21 io_in[27]
*22 io_in[28]
*23 io_in[29]
*24 io_in[2]
*25 io_in[30]
*26 io_in[31]
*27 io_in[32]
*28 io_in[33]
*29 io_in[34]
*30 io_in[35]
*31 io_in[36]
*32 io_in[37]
*33 io_in[3]
*34 io_in[4]
*35 io_in[5]
*36 io_in[6]
*37 io_in[7]
*38 io_in[8]
*39 io_in[9]
*40 io_oeb[0]
*41 io_oeb[10]
*42 io_oeb[11]
*43 io_oeb[12]
*44 io_oeb[13]
*45 io_oeb[14]
*46 io_oeb[15]
*47 io_oeb[16]
*48 io_oeb[17]
*49 io_oeb[18]
*50 io_oeb[19]
*51 io_oeb[1]
*52 io_oeb[20]
*53 io_oeb[21]
*54 io_oeb[22]
*55 io_oeb[23]
*56 io_oeb[24]
*57 io_oeb[25]
*58 io_oeb[26]
*59 io_oeb[27]
*60 io_oeb[28]
*61 io_oeb[29]
*62 io_oeb[2]
*63 io_oeb[30]
*64 io_oeb[31]
*65 io_oeb[32]
*66 io_oeb[33]
*67 io_oeb[34]
*68 io_oeb[35]
*69 io_oeb[36]
*70 io_oeb[37]
*71 io_oeb[3]
*72 io_oeb[4]
*73 io_oeb[5]
*74 io_oeb[6]
*75 io_oeb[7]
*76 io_oeb[8]
*77 io_oeb[9]
*78 io_out[0]
*79 io_out[10]
*80 io_out[11]
*81 io_out[12]
*82 io_out[13]
*83 io_out[14]
*84 io_out[15]
*85 io_out[16]
*86 io_out[17]
*87 io_out[18]
*88 io_out[19]
*89 io_out[1]
*90 io_out[20]
*91 io_out[21]
*92 io_out[22]
*93 io_out[23]
*94 io_out[24]
*95 io_out[25]
*96 io_out[26]
*97 io_out[27]
*98 io_out[28]
*99 io_out[29]
*100 io_out[2]
*101 io_out[30]
*102 io_out[31]
*103 io_out[32]
*104 io_out[33]
*105 io_out[34]
*106 io_out[35]
*107 io_out[36]
*108 io_out[37]
*109 io_out[3]
*110 io_out[4]
*111 io_out[5]
*112 io_out[6]
*113 io_out[7]
*114 io_out[8]
*115 io_out[9]
*116 rambus_wb_ack_i
*117 rambus_wb_adr_o[0]
*118 rambus_wb_adr_o[1]
*119 rambus_wb_adr_o[2]
*120 rambus_wb_adr_o[3]
*121 rambus_wb_adr_o[4]
*122 rambus_wb_adr_o[5]
*123 rambus_wb_adr_o[6]
*124 rambus_wb_adr_o[7]
*125 rambus_wb_adr_o[8]
*126 rambus_wb_adr_o[9]
*127 rambus_wb_clk_o
*128 rambus_wb_cyc_o
*129 rambus_wb_dat_i[0]
*130 rambus_wb_dat_i[10]
*131 rambus_wb_dat_i[11]
*132 rambus_wb_dat_i[12]
*133 rambus_wb_dat_i[13]
*134 rambus_wb_dat_i[14]
*135 rambus_wb_dat_i[15]
*136 rambus_wb_dat_i[16]
*137 rambus_wb_dat_i[17]
*138 rambus_wb_dat_i[18]
*139 rambus_wb_dat_i[19]
*140 rambus_wb_dat_i[1]
*141 rambus_wb_dat_i[20]
*142 rambus_wb_dat_i[21]
*143 rambus_wb_dat_i[22]
*144 rambus_wb_dat_i[23]
*145 rambus_wb_dat_i[24]
*146 rambus_wb_dat_i[25]
*147 rambus_wb_dat_i[26]
*148 rambus_wb_dat_i[27]
*149 rambus_wb_dat_i[28]
*150 rambus_wb_dat_i[29]
*151 rambus_wb_dat_i[2]
*152 rambus_wb_dat_i[30]
*153 rambus_wb_dat_i[31]
*154 rambus_wb_dat_i[3]
*155 rambus_wb_dat_i[4]
*156 rambus_wb_dat_i[5]
*157 rambus_wb_dat_i[6]
*158 rambus_wb_dat_i[7]
*159 rambus_wb_dat_i[8]
*160 rambus_wb_dat_i[9]
*161 rambus_wb_dat_o[0]
*162 rambus_wb_dat_o[10]
*163 rambus_wb_dat_o[11]
*164 rambus_wb_dat_o[12]
*165 rambus_wb_dat_o[13]
*166 rambus_wb_dat_o[14]
*167 rambus_wb_dat_o[15]
*168 rambus_wb_dat_o[16]
*169 rambus_wb_dat_o[17]
*170 rambus_wb_dat_o[18]
*171 rambus_wb_dat_o[19]
*172 rambus_wb_dat_o[1]
*173 rambus_wb_dat_o[20]
*174 rambus_wb_dat_o[21]
*175 rambus_wb_dat_o[22]
*176 rambus_wb_dat_o[23]
*177 rambus_wb_dat_o[24]
*178 rambus_wb_dat_o[25]
*179 rambus_wb_dat_o[26]
*180 rambus_wb_dat_o[27]
*181 rambus_wb_dat_o[28]
*182 rambus_wb_dat_o[29]
*183 rambus_wb_dat_o[2]
*184 rambus_wb_dat_o[30]
*185 rambus_wb_dat_o[31]
*186 rambus_wb_dat_o[3]
*187 rambus_wb_dat_o[4]
*188 rambus_wb_dat_o[5]
*189 rambus_wb_dat_o[6]
*190 rambus_wb_dat_o[7]
*191 rambus_wb_dat_o[8]
*192 rambus_wb_dat_o[9]
*193 rambus_wb_rst_o
*194 rambus_wb_sel_o[0]
*195 rambus_wb_sel_o[1]
*196 rambus_wb_sel_o[2]
*197 rambus_wb_sel_o[3]
*198 rambus_wb_stb_o
*199 rambus_wb_we_o
*202 wb_clk_i
*203 wb_rst_i
*204 wbs_ack_o
*205 wbs_adr_i[0]
*206 wbs_adr_i[10]
*207 wbs_adr_i[11]
*208 wbs_adr_i[12]
*209 wbs_adr_i[13]
*210 wbs_adr_i[14]
*211 wbs_adr_i[15]
*212 wbs_adr_i[16]
*213 wbs_adr_i[17]
*214 wbs_adr_i[18]
*215 wbs_adr_i[19]
*216 wbs_adr_i[1]
*217 wbs_adr_i[20]
*218 wbs_adr_i[21]
*219 wbs_adr_i[22]
*220 wbs_adr_i[23]
*221 wbs_adr_i[24]
*222 wbs_adr_i[25]
*223 wbs_adr_i[26]
*224 wbs_adr_i[27]
*225 wbs_adr_i[28]
*226 wbs_adr_i[29]
*227 wbs_adr_i[2]
*228 wbs_adr_i[30]
*229 wbs_adr_i[31]
*230 wbs_adr_i[3]
*231 wbs_adr_i[4]
*232 wbs_adr_i[5]
*233 wbs_adr_i[6]
*234 wbs_adr_i[7]
*235 wbs_adr_i[8]
*236 wbs_adr_i[9]
*237 wbs_cyc_i
*238 wbs_dat_i[0]
*239 wbs_dat_i[10]
*240 wbs_dat_i[11]
*241 wbs_dat_i[12]
*242 wbs_dat_i[13]
*243 wbs_dat_i[14]
*244 wbs_dat_i[15]
*245 wbs_dat_i[16]
*246 wbs_dat_i[17]
*247 wbs_dat_i[18]
*248 wbs_dat_i[19]
*249 wbs_dat_i[1]
*250 wbs_dat_i[20]
*251 wbs_dat_i[21]
*252 wbs_dat_i[22]
*253 wbs_dat_i[23]
*254 wbs_dat_i[24]
*255 wbs_dat_i[25]
*256 wbs_dat_i[26]
*257 wbs_dat_i[27]
*258 wbs_dat_i[28]
*259 wbs_dat_i[29]
*260 wbs_dat_i[2]
*261 wbs_dat_i[30]
*262 wbs_dat_i[31]
*263 wbs_dat_i[3]
*264 wbs_dat_i[4]
*265 wbs_dat_i[5]
*266 wbs_dat_i[6]
*267 wbs_dat_i[7]
*268 wbs_dat_i[8]
*269 wbs_dat_i[9]
*270 wbs_dat_o[0]
*271 wbs_dat_o[10]
*272 wbs_dat_o[11]
*273 wbs_dat_o[12]
*274 wbs_dat_o[13]
*275 wbs_dat_o[14]
*276 wbs_dat_o[15]
*277 wbs_dat_o[16]
*278 wbs_dat_o[17]
*279 wbs_dat_o[18]
*280 wbs_dat_o[19]
*281 wbs_dat_o[1]
*282 wbs_dat_o[20]
*283 wbs_dat_o[21]
*284 wbs_dat_o[22]
*285 wbs_dat_o[23]
*286 wbs_dat_o[24]
*287 wbs_dat_o[25]
*288 wbs_dat_o[26]
*289 wbs_dat_o[27]
*290 wbs_dat_o[28]
*291 wbs_dat_o[29]
*292 wbs_dat_o[2]
*293 wbs_dat_o[30]
*294 wbs_dat_o[31]
*295 wbs_dat_o[3]
*296 wbs_dat_o[4]
*297 wbs_dat_o[5]
*298 wbs_dat_o[6]
*299 wbs_dat_o[7]
*300 wbs_dat_o[8]
*301 wbs_dat_o[9]
*302 wbs_sel_i[0]
*303 wbs_sel_i[1]
*304 wbs_sel_i[2]
*305 wbs_sel_i[3]
*306 wbs_stb_i
*307 wbs_we_i
*308 _0000_
*309 _0001_
*310 _0002_
*311 _0003_
*312 _0004_
*313 _0005_
*314 _0006_
*315 _0007_
*316 _0008_
*317 _0009_
*318 _0010_
*319 _0011_
*320 _0012_
*321 _0013_
*322 _0014_
*323 _0015_
*324 _0016_
*325 _0017_
*326 _0018_
*327 _0019_
*328 _0020_
*329 _0021_
*330 _0022_
*331 _0023_
*332 _0024_
*333 _0025_
*334 _0026_
*335 _0027_
*336 _0028_
*337 _0029_
*338 _0030_
*339 _0031_
*340 _0032_
*341 _0033_
*342 _0034_
*343 _0035_
*344 _0036_
*345 _0037_
*346 _0038_
*347 _0039_
*348 _0040_
*349 _0041_
*350 _0042_
*351 _0043_
*352 _0044_
*353 _0045_
*354 _0046_
*355 _0047_
*356 _0048_
*357 _0049_
*358 _0050_
*359 _0051_
*360 _0052_
*361 _0053_
*362 _0054_
*363 _0055_
*364 _0056_
*365 _0057_
*366 _0058_
*367 _0059_
*368 _0060_
*369 _0061_
*370 _0062_
*371 _0063_
*372 _0064_
*373 _0065_
*374 _0066_
*375 _0067_
*376 _0068_
*377 _0069_
*378 _0070_
*379 _0071_
*380 _0072_
*381 _0073_
*382 _0074_
*383 _0075_
*384 _0076_
*385 _0077_
*386 _0078_
*387 _0079_
*388 _0080_
*389 _0081_
*390 _0082_
*391 _0083_
*392 _0084_
*393 _0085_
*394 _0086_
*395 _0087_
*396 _0088_
*397 _0089_
*398 _0090_
*399 _0091_
*400 _0092_
*401 _0093_
*402 _0094_
*403 _0095_
*404 _0096_
*405 _0097_
*406 _0098_
*407 _0099_
*408 _0100_
*409 _0101_
*410 _0102_
*411 _0103_
*412 _0104_
*413 _0105_
*414 _0106_
*415 _0107_
*416 _0108_
*417 _0109_
*418 _0110_
*419 _0111_
*420 _0112_
*421 _0113_
*422 _0114_
*423 _0115_
*424 _0116_
*425 _0117_
*426 _0118_
*427 _0119_
*428 _0120_
*429 _0121_
*430 _0122_
*431 _0123_
*432 _0124_
*433 _0125_
*434 _0126_
*435 _0127_
*436 _0128_
*437 _0129_
*438 _0130_
*439 _0131_
*440 _0132_
*441 _0133_
*442 _0134_
*443 _0135_
*444 _0136_
*445 _0137_
*446 _0138_
*447 _0139_
*448 _0140_
*449 _0141_
*450 _0142_
*451 _0143_
*452 _0144_
*453 _0145_
*454 _0146_
*455 _0147_
*456 _0148_
*457 _0149_
*458 _0150_
*459 _0151_
*460 _0152_
*461 _0153_
*462 _0154_
*463 _0155_
*464 _0156_
*465 _0157_
*466 _0158_
*467 _0159_
*468 _0160_
*469 _0161_
*470 _0162_
*471 _0163_
*472 _0164_
*473 _0165_
*474 _0166_
*475 _0167_
*476 _0168_
*477 _0169_
*478 _0170_
*479 _0171_
*480 _0172_
*481 _0173_
*482 _0174_
*483 _0175_
*484 _0176_
*485 _0177_
*486 _0178_
*487 _0179_
*488 _0180_
*489 _0181_
*490 _0182_
*491 _0183_
*492 _0184_
*493 _0185_
*494 _0186_
*495 _0187_
*496 _0188_
*497 _0189_
*498 _0190_
*499 _0191_
*500 _0192_
*501 _0193_
*502 _0194_
*503 _0195_
*504 _0196_
*505 _0197_
*506 _0198_
*507 _0199_
*508 _0200_
*509 _0201_
*510 _0202_
*511 _0203_
*512 _0204_
*513 _0205_
*514 _0206_
*515 _0207_
*516 _0208_
*517 _0209_
*518 _0210_
*519 _0211_
*520 _0212_
*521 _0213_
*522 _0214_
*523 _0215_
*524 _0216_
*525 _0217_
*526 _0218_
*527 _0219_
*528 _0220_
*529 _0221_
*530 _0222_
*531 _0223_
*532 _0224_
*533 _0225_
*534 _0226_
*535 _0227_
*536 _0228_
*537 _0229_
*538 _0230_
*539 _0231_
*540 _0232_
*541 _0233_
*542 _0234_
*543 _0235_
*544 _0236_
*545 _0237_
*546 _0238_
*547 _0239_
*548 _0240_
*549 _0241_
*550 _0242_
*551 _0243_
*552 _0244_
*553 _0245_
*554 _0246_
*555 _0247_
*556 _0248_
*557 _0249_
*558 _0250_
*559 _0251_
*560 _0252_
*561 _0253_
*562 _0254_
*563 _0255_
*564 _0256_
*565 _0257_
*566 _0258_
*567 _0259_
*568 _0260_
*569 _0261_
*570 _0262_
*571 _0263_
*572 _0264_
*573 _0265_
*574 _0266_
*575 _0267_
*576 _0268_
*577 _0269_
*578 _0270_
*579 _0271_
*580 _0272_
*581 _0273_
*582 _0274_
*583 _0275_
*584 _0276_
*585 _0277_
*586 _0278_
*587 _0279_
*588 _0280_
*589 _0281_
*590 _0282_
*591 _0283_
*592 _0284_
*593 _0285_
*594 _0286_
*595 _0287_
*596 _0288_
*597 _0289_
*598 _0290_
*599 _0291_
*600 _0292_
*601 _0293_
*602 _0294_
*603 _0295_
*604 _0296_
*605 _0297_
*606 _0298_
*607 _0299_
*608 _0300_
*609 _0301_
*610 _0302_
*611 _0303_
*612 _0304_
*613 _0305_
*614 _0306_
*615 _0307_
*616 _0308_
*617 _0309_
*618 _0310_
*619 _0311_
*620 _0312_
*621 _0313_
*622 _0314_
*623 _0315_
*624 _0316_
*625 _0317_
*626 _0318_
*627 _0319_
*628 _0320_
*629 _0321_
*630 _0322_
*631 _0323_
*632 _0324_
*633 _0325_
*634 _0326_
*635 _0327_
*636 _0328_
*637 _0329_
*638 _0330_
*639 _0331_
*640 _0332_
*641 _0333_
*642 _0334_
*643 _0335_
*644 _0336_
*645 _0337_
*646 _0338_
*647 _0339_
*648 _0340_
*649 _0341_
*650 _0342_
*651 _0343_
*652 _0344_
*653 _0345_
*654 _0346_
*655 _0347_
*656 _0348_
*657 _0349_
*658 _0350_
*659 _0351_
*660 _0352_
*661 _0353_
*662 _0354_
*663 _0355_
*664 _0356_
*665 _0357_
*666 _0358_
*667 _0359_
*668 _0360_
*669 _0361_
*670 _0362_
*671 _0363_
*672 _0364_
*673 _0365_
*674 _0366_
*675 _0367_
*676 _0368_
*677 _0369_
*678 _0370_
*679 _0371_
*680 _0372_
*681 _0373_
*682 _0374_
*683 _0375_
*684 _0376_
*685 _0377_
*686 _0378_
*687 _0379_
*688 _0380_
*689 _0381_
*690 _0382_
*691 _0383_
*692 _0384_
*693 _0385_
*694 _0386_
*695 _0387_
*696 _0388_
*697 _0389_
*698 _0390_
*699 _0391_
*700 _0392_
*701 _0393_
*702 _0394_
*703 _0395_
*704 _0396_
*705 _0397_
*706 _0398_
*707 _0399_
*708 _0400_
*709 _0401_
*710 _0402_
*711 _0403_
*712 _0404_
*713 _0405_
*714 _0406_
*715 _0407_
*716 _0408_
*717 _0409_
*718 _0410_
*719 _0411_
*720 _0412_
*721 _0413_
*722 _0414_
*723 _0415_
*724 _0416_
*725 _0417_
*726 _0418_
*727 _0419_
*728 _0420_
*729 _0421_
*730 _0422_
*731 _0423_
*732 _0424_
*733 _0425_
*734 _0426_
*735 _0427_
*736 _0428_
*737 _0429_
*738 _0430_
*739 _0431_
*740 _0432_
*741 _0433_
*742 _0434_
*743 _0435_
*744 _0436_
*745 _0437_
*746 _0438_
*747 _0439_
*748 _0440_
*749 _0441_
*750 _0442_
*751 _0443_
*752 _0444_
*753 _0445_
*754 _0446_
*755 _0447_
*756 _0448_
*757 _0449_
*758 _0450_
*759 _0451_
*760 _0452_
*761 _0453_
*762 _0454_
*763 _0455_
*764 _0456_
*765 _0457_
*766 _0458_
*767 _0459_
*768 _0460_
*769 _0461_
*770 _0462_
*771 _0463_
*772 _0464_
*773 _0465_
*774 _0466_
*775 _0467_
*776 _0468_
*777 _0469_
*778 _0470_
*779 _0471_
*780 _0472_
*781 _0473_
*782 _0474_
*783 _0475_
*784 _0476_
*785 _0477_
*786 _0478_
*787 _0479_
*788 _0480_
*789 _0481_
*790 _0482_
*791 _0483_
*792 _0484_
*793 _0485_
*794 _0486_
*795 _0487_
*796 _0488_
*797 _0489_
*798 _0490_
*799 _0491_
*800 _0492_
*801 _0493_
*802 _0494_
*803 _0495_
*804 _0496_
*805 _0497_
*806 _0498_
*807 _0499_
*808 _0500_
*809 _0501_
*810 _0502_
*811 _0503_
*812 _0504_
*813 _0505_
*814 _0506_
*815 _0507_
*816 _0508_
*817 _0509_
*818 _0510_
*819 _0511_
*820 _0512_
*821 _0513_
*822 _0514_
*823 _0515_
*824 _0516_
*825 _0517_
*826 _0518_
*827 _0519_
*828 _0520_
*829 _0521_
*830 _0522_
*831 _0523_
*832 _0524_
*833 _0525_
*834 _0526_
*835 _0527_
*836 _0528_
*837 _0529_
*838 _0530_
*839 _0531_
*840 _0532_
*841 _0533_
*842 _0534_
*843 _0535_
*844 _0536_
*845 _0537_
*846 _0538_
*847 _0539_
*848 _0540_
*849 _0541_
*850 _0542_
*851 _0543_
*852 _0544_
*853 _0545_
*854 _0546_
*855 _0547_
*856 _0548_
*857 _0549_
*858 _0550_
*859 _0551_
*860 _0552_
*861 _0553_
*862 _0554_
*863 _0555_
*864 _0556_
*865 _0557_
*866 _0558_
*867 _0559_
*868 _0560_
*869 _0561_
*870 _0562_
*871 _0563_
*872 _0564_
*873 _0565_
*874 _0566_
*875 _0567_
*876 _0568_
*877 _0569_
*878 _0570_
*879 _0571_
*880 _0572_
*881 _0573_
*882 _0574_
*883 _0575_
*884 _0576_
*885 _0577_
*886 _0578_
*887 _0579_
*888 _0580_
*889 _0581_
*890 _0582_
*891 _0583_
*892 _0584_
*893 _0585_
*894 _0586_
*895 _0587_
*896 _0588_
*897 _0589_
*898 _0590_
*899 _0591_
*900 _0592_
*901 _0593_
*902 _0594_
*903 _0595_
*904 _0596_
*905 _0597_
*906 _0598_
*907 _0599_
*908 _0600_
*909 _0601_
*910 _0602_
*911 _0603_
*912 _0604_
*913 _0605_
*914 _0606_
*915 _0607_
*916 _0608_
*917 _0609_
*918 _0610_
*919 _0611_
*920 _0612_
*921 _0613_
*922 _0614_
*923 _0615_
*924 _0616_
*925 _0617_
*926 _0618_
*927 _0619_
*928 _0620_
*929 _0621_
*930 _0622_
*931 _0623_
*932 _0624_
*933 _0625_
*934 _0626_
*935 _0627_
*936 _0628_
*937 _0629_
*938 _0630_
*939 _0631_
*940 _0632_
*941 _0633_
*942 _0634_
*943 _0635_
*944 _0636_
*945 _0637_
*946 _0638_
*947 _0639_
*948 _0640_
*949 _0641_
*950 _0642_
*951 _0643_
*952 _0644_
*953 _0645_
*954 _0646_
*955 _0647_
*956 _0648_
*957 _0649_
*958 _0650_
*959 _0651_
*960 _0652_
*961 _0653_
*962 _0654_
*963 _0655_
*964 _0656_
*965 _0657_
*966 _0658_
*967 _0659_
*968 _0660_
*969 _0661_
*970 _0662_
*971 _0663_
*972 _0664_
*973 _0665_
*974 _0666_
*975 _0667_
*976 _0668_
*977 _0669_
*978 _0670_
*979 _0671_
*980 _0672_
*981 _0673_
*982 _0674_
*983 _0675_
*984 _0676_
*985 _0677_
*986 _0678_
*987 _0679_
*988 _0680_
*989 _0681_
*990 _0682_
*991 _0683_
*992 _0684_
*993 _0685_
*994 _0686_
*995 _0687_
*996 _0688_
*997 _0689_
*998 _0690_
*999 _0691_
*1000 _0692_
*1001 _0693_
*1002 _0694_
*1003 _0695_
*1004 _0696_
*1005 _0697_
*1006 _0698_
*1007 _0699_
*1008 _0700_
*1009 _0701_
*1010 _0702_
*1011 _0703_
*1012 _0704_
*1013 _0705_
*1014 _0706_
*1015 _0707_
*1016 _0708_
*1017 _0709_
*1018 _0710_
*1019 _0711_
*1020 _0712_
*1021 _0713_
*1022 _0714_
*1023 _0715_
*1024 _0716_
*1025 _0717_
*1026 _0718_
*1027 _0719_
*1028 _0720_
*1029 _0721_
*1030 _0722_
*1031 _0723_
*1032 _0724_
*1033 _0725_
*1034 _0726_
*1035 _0727_
*1036 _0728_
*1037 _0729_
*1038 _0730_
*1039 _0731_
*1040 _0732_
*1041 _0733_
*1042 _0734_
*1043 _0735_
*1044 _0736_
*1045 _0737_
*1046 _0738_
*1047 _0739_
*1048 _0740_
*1049 _0741_
*1050 _0742_
*1051 _0743_
*1052 _0744_
*1053 _0745_
*1054 _0746_
*1055 _0747_
*1056 _0748_
*1057 _0749_
*1058 _0750_
*1059 _0751_
*1060 _0752_
*1061 _0753_
*1062 _0754_
*1063 _0755_
*1064 _0756_
*1065 _0757_
*1066 _0758_
*1067 _0759_
*1068 _0760_
*1069 _0761_
*1070 _0762_
*1071 _0763_
*1072 _0764_
*1073 _0765_
*1074 _0766_
*1075 _0767_
*1076 _0768_
*1077 _0769_
*1078 _0770_
*1079 _0771_
*1080 _0772_
*1081 _0773_
*1082 _0774_
*1083 _0775_
*1084 _0776_
*1085 _0777_
*1086 _0778_
*1087 _0779_
*1088 _0780_
*1089 _0781_
*1090 _0782_
*1091 _0783_
*1092 _0784_
*1093 _0785_
*1094 _0786_
*1095 _0787_
*1096 _0788_
*1097 _0789_
*1098 _0790_
*1099 _0791_
*1100 _0792_
*1101 _0793_
*1102 _0794_
*1103 _0795_
*1104 _0796_
*1105 _0797_
*1106 _0798_
*1107 _0799_
*1108 _0800_
*1109 _0801_
*1110 _0802_
*1111 _0803_
*1112 _0804_
*1113 _0805_
*1114 _0806_
*1115 _0807_
*1116 _0808_
*1117 _0809_
*1118 _0810_
*1119 _0811_
*1120 _0812_
*1121 _0813_
*1122 _0814_
*1123 _0815_
*1124 _0816_
*1125 _0817_
*1126 _0818_
*1127 _0819_
*1128 _0820_
*1129 _0821_
*1130 _0822_
*1131 _0823_
*1132 _0824_
*1133 _0825_
*1134 clknet_0_wb_clk_i
*1135 clknet_1_0_0_wb_clk_i
*1136 clknet_1_1_0_wb_clk_i
*1137 clknet_2_0_0_wb_clk_i
*1138 clknet_2_1_0_wb_clk_i
*1139 clknet_2_2_0_wb_clk_i
*1140 clknet_2_3_0_wb_clk_i
*1141 clknet_3_0_0_wb_clk_i
*1142 clknet_3_1_0_wb_clk_i
*1143 clknet_3_2_0_wb_clk_i
*1144 clknet_3_3_0_wb_clk_i
*1145 clknet_3_4_0_wb_clk_i
*1146 clknet_3_5_0_wb_clk_i
*1147 clknet_3_6_0_wb_clk_i
*1148 clknet_3_7_0_wb_clk_i
*1149 clknet_4_0_0_wb_clk_i
*1150 clknet_4_10_0_wb_clk_i
*1151 clknet_4_11_0_wb_clk_i
*1152 clknet_4_12_0_wb_clk_i
*1153 clknet_4_13_0_wb_clk_i
*1154 clknet_4_14_0_wb_clk_i
*1155 clknet_4_15_0_wb_clk_i
*1156 clknet_4_1_0_wb_clk_i
*1157 clknet_4_2_0_wb_clk_i
*1158 clknet_4_3_0_wb_clk_i
*1159 clknet_4_4_0_wb_clk_i
*1160 clknet_4_5_0_wb_clk_i
*1161 clknet_4_6_0_wb_clk_i
*1162 clknet_4_7_0_wb_clk_i
*1163 clknet_4_8_0_wb_clk_i
*1164 clknet_4_9_0_wb_clk_i
*1165 generator\.byte_count\[0\]
*1166 generator\.byte_count\[1\]
*1167 generator\.caravel_wb_ack_o
*1168 generator\.caravel_wb_dat_o\[0\]
*1169 generator\.caravel_wb_dat_o\[10\]
*1170 generator\.caravel_wb_dat_o\[11\]
*1171 generator\.caravel_wb_dat_o\[12\]
*1172 generator\.caravel_wb_dat_o\[13\]
*1173 generator\.caravel_wb_dat_o\[14\]
*1174 generator\.caravel_wb_dat_o\[15\]
*1175 generator\.caravel_wb_dat_o\[16\]
*1176 generator\.caravel_wb_dat_o\[17\]
*1177 generator\.caravel_wb_dat_o\[18\]
*1178 generator\.caravel_wb_dat_o\[19\]
*1179 generator\.caravel_wb_dat_o\[1\]
*1180 generator\.caravel_wb_dat_o\[20\]
*1181 generator\.caravel_wb_dat_o\[21\]
*1182 generator\.caravel_wb_dat_o\[22\]
*1183 generator\.caravel_wb_dat_o\[23\]
*1184 generator\.caravel_wb_dat_o\[24\]
*1185 generator\.caravel_wb_dat_o\[2\]
*1186 generator\.caravel_wb_dat_o\[3\]
*1187 generator\.caravel_wb_dat_o\[4\]
*1188 generator\.caravel_wb_dat_o\[5\]
*1189 generator\.caravel_wb_dat_o\[6\]
*1190 generator\.caravel_wb_dat_o\[7\]
*1191 generator\.caravel_wb_dat_o\[8\]
*1192 generator\.caravel_wb_dat_o\[9\]
*1193 generator\.dac\[0\]
*1194 generator\.dac\[1\]
*1195 generator\.dac\[2\]
*1196 generator\.dac\[3\]
*1197 generator\.dac\[4\]
*1198 generator\.dac\[5\]
*1199 generator\.dac\[6\]
*1200 generator\.dac\[7\]
*1201 generator\.dac_data\[0\]
*1202 generator\.dac_data\[10\]
*1203 generator\.dac_data\[11\]
*1204 generator\.dac_data\[12\]
*1205 generator\.dac_data\[13\]
*1206 generator\.dac_data\[14\]
*1207 generator\.dac_data\[15\]
*1208 generator\.dac_data\[16\]
*1209 generator\.dac_data\[17\]
*1210 generator\.dac_data\[18\]
*1211 generator\.dac_data\[19\]
*1212 generator\.dac_data\[1\]
*1213 generator\.dac_data\[20\]
*1214 generator\.dac_data\[21\]
*1215 generator\.dac_data\[22\]
*1216 generator\.dac_data\[23\]
*1217 generator\.dac_data\[24\]
*1218 generator\.dac_data\[25\]
*1219 generator\.dac_data\[26\]
*1220 generator\.dac_data\[27\]
*1221 generator\.dac_data\[28\]
*1222 generator\.dac_data\[29\]
*1223 generator\.dac_data\[2\]
*1224 generator\.dac_data\[30\]
*1225 generator\.dac_data\[31\]
*1226 generator\.dac_data\[3\]
*1227 generator\.dac_data\[4\]
*1228 generator\.dac_data\[5\]
*1229 generator\.dac_data\[6\]
*1230 generator\.dac_data\[7\]
*1231 generator\.dac_data\[8\]
*1232 generator\.dac_data\[9\]
*1233 generator\.dac_data_buf\[0\]
*1234 generator\.dac_data_buf\[10\]
*1235 generator\.dac_data_buf\[11\]
*1236 generator\.dac_data_buf\[12\]
*1237 generator\.dac_data_buf\[13\]
*1238 generator\.dac_data_buf\[14\]
*1239 generator\.dac_data_buf\[15\]
*1240 generator\.dac_data_buf\[16\]
*1241 generator\.dac_data_buf\[17\]
*1242 generator\.dac_data_buf\[18\]
*1243 generator\.dac_data_buf\[19\]
*1244 generator\.dac_data_buf\[1\]
*1245 generator\.dac_data_buf\[20\]
*1246 generator\.dac_data_buf\[21\]
*1247 generator\.dac_data_buf\[22\]
*1248 generator\.dac_data_buf\[23\]
*1249 generator\.dac_data_buf\[24\]
*1250 generator\.dac_data_buf\[25\]
*1251 generator\.dac_data_buf\[26\]
*1252 generator\.dac_data_buf\[27\]
*1253 generator\.dac_data_buf\[28\]
*1254 generator\.dac_data_buf\[29\]
*1255 generator\.dac_data_buf\[2\]
*1256 generator\.dac_data_buf\[30\]
*1257 generator\.dac_data_buf\[31\]
*1258 generator\.dac_data_buf\[3\]
*1259 generator\.dac_data_buf\[4\]
*1260 generator\.dac_data_buf\[5\]
*1261 generator\.dac_data_buf\[6\]
*1262 generator\.dac_data_buf\[7\]
*1263 generator\.dac_data_buf\[8\]
*1264 generator\.dac_data_buf\[9\]
*1265 generator\.dac_state\[0\]
*1266 generator\.dac_state\[1\]
*1267 generator\.dac_state\[2\]
*1268 generator\.dbg_dac_start
*1269 generator\.dbg_ram_addr_zero
*1270 generator\.dbg_ram_wb_stb
*1271 generator\.dbg_state_run
*1272 generator\.fetch_first
*1273 generator\.fetch_next
*1274 generator\.period\[0\]
*1275 generator\.period\[10\]
*1276 generator\.period\[11\]
*1277 generator\.period\[12\]
*1278 generator\.period\[13\]
*1279 generator\.period\[14\]
*1280 generator\.period\[15\]
*1281 generator\.period\[1\]
*1282 generator\.period\[2\]
*1283 generator\.period\[3\]
*1284 generator\.period\[4\]
*1285 generator\.period\[5\]
*1286 generator\.period\[6\]
*1287 generator\.period\[7\]
*1288 generator\.period\[8\]
*1289 generator\.period\[9\]
*1290 generator\.ram_address\[0\]
*1291 generator\.ram_address\[1\]
*1292 generator\.ram_address\[2\]
*1293 generator\.ram_address\[3\]
*1294 generator\.ram_address\[4\]
*1295 generator\.ram_address\[5\]
*1296 generator\.ram_address\[6\]
*1297 generator\.ram_address\[7\]
*1298 generator\.ram_end_addr\[0\]
*1299 generator\.ram_end_addr\[1\]
*1300 generator\.ram_end_addr\[2\]
*1301 generator\.ram_end_addr\[3\]
*1302 generator\.ram_end_addr\[4\]
*1303 generator\.ram_end_addr\[5\]
*1304 generator\.ram_end_addr\[6\]
*1305 generator\.ram_end_addr\[7\]
*1306 generator\.ram_state\[0\]
*1307 generator\.ram_state\[1\]
*1308 generator\.ram_state\[2\]
*1309 generator\.rambus_wb_adr_o\[0\]
*1310 generator\.rambus_wb_adr_o\[1\]
*1311 generator\.rambus_wb_adr_o\[2\]
*1312 generator\.rambus_wb_adr_o\[3\]
*1313 generator\.rambus_wb_adr_o\[4\]
*1314 generator\.rambus_wb_adr_o\[5\]
*1315 generator\.rambus_wb_adr_o\[6\]
*1316 generator\.rambus_wb_adr_o\[7\]
*1317 generator\.rambus_wb_rst_o
*1318 generator\.wait_period\[0\]
*1319 generator\.wait_period\[10\]
*1320 generator\.wait_period\[11\]
*1321 generator\.wait_period\[12\]
*1322 generator\.wait_period\[13\]
*1323 generator\.wait_period\[14\]
*1324 generator\.wait_period\[15\]
*1325 generator\.wait_period\[1\]
*1326 generator\.wait_period\[2\]
*1327 generator\.wait_period\[3\]
*1328 generator\.wait_period\[4\]
*1329 generator\.wait_period\[5\]
*1330 generator\.wait_period\[6\]
*1331 generator\.wait_period\[7\]
*1332 generator\.wait_period\[8\]
*1333 generator\.wait_period\[9\]
*1334 net1
*1335 net10
*1336 net100
*1337 net101
*1338 net102
*1339 net103
*1340 net104
*1341 net105
*1342 net106
*1343 net107
*1344 net108
*1345 net109
*1346 net11
*1347 net110
*1348 net111
*1349 net112
*1350 net113
*1351 net114
*1352 net115
*1353 net116
*1354 net117
*1355 net118
*1356 net119
*1357 net12
*1358 net120
*1359 net121
*1360 net122
*1361 net123
*1362 net124
*1363 net125
*1364 net126
*1365 net127
*1366 net128
*1367 net129
*1368 net13
*1369 net130
*1370 net131
*1371 net132
*1372 net133
*1373 net134
*1374 net135
*1375 net136
*1376 net137
*1377 net138
*1378 net139
*1379 net14
*1380 net140
*1381 net141
*1382 net142
*1383 net143
*1384 net144
*1385 net145
*1386 net146
*1387 net147
*1388 net148
*1389 net149
*1390 net15
*1391 net150
*1392 net151
*1393 net152
*1394 net153
*1395 net154
*1396 net155
*1397 net156
*1398 net157
*1399 net158
*1400 net159
*1401 net16
*1402 net160
*1403 net161
*1404 net162
*1405 net163
*1406 net164
*1407 net165
*1408 net166
*1409 net167
*1410 net168
*1411 net169
*1412 net17
*1413 net170
*1414 net171
*1415 net172
*1416 net173
*1417 net174
*1418 net175
*1419 net176
*1420 net177
*1421 net178
*1422 net179
*1423 net18
*1424 net180
*1425 net181
*1426 net182
*1427 net183
*1428 net184
*1429 net185
*1430 net186
*1431 net187
*1432 net188
*1433 net189
*1434 net19
*1435 net190
*1436 net191
*1437 net192
*1438 net193
*1439 net194
*1440 net195
*1441 net196
*1442 net197
*1443 net198
*1444 net199
*1445 net2
*1446 net20
*1447 net200
*1448 net201
*1449 net202
*1450 net203
*1451 net21
*1452 net22
*1453 net23
*1454 net24
*1455 net25
*1456 net26
*1457 net27
*1458 net28
*1459 net29
*1460 net3
*1461 net30
*1462 net31
*1463 net32
*1464 net33
*1465 net34
*1466 net35
*1467 net36
*1468 net37
*1469 net38
*1470 net39
*1471 net4
*1472 net40
*1473 net41
*1474 net42
*1475 net43
*1476 net44
*1477 net45
*1478 net46
*1479 net47
*1480 net48
*1481 net49
*1482 net5
*1483 net50
*1484 net51
*1485 net52
*1486 net53
*1487 net54
*1488 net55
*1489 net56
*1490 net57
*1491 net58
*1492 net59
*1493 net6
*1494 net60
*1495 net61
*1496 net62
*1497 net63
*1498 net64
*1499 net65
*1500 net66
*1501 net67
*1502 net68
*1503 net69
*1504 net7
*1505 net70
*1506 net71
*1507 net72
*1508 net73
*1509 net74
*1510 net75
*1511 net76
*1512 net77
*1513 net78
*1514 net79
*1515 net8
*1516 net80
*1517 net81
*1518 net82
*1519 net83
*1520 net84
*1521 net85
*1522 net86
*1523 net87
*1524 net88
*1525 net89
*1526 net9
*1527 net90
*1528 net91
*1529 net92
*1530 net93
*1531 net94
*1532 net95
*1533 net96
*1534 net97
*1535 net98
*1536 net99
*1537 ANTENNA_0
*1538 ANTENNA_1
*1539 ANTENNA_2
*1540 ANTENNA_3
*1541 ANTENNA_4
*1542 ANTENNA_5
*1543 ANTENNA_6
*1544 ANTENNA_7
*1545 ANTENNA_8
*1546 FILLER_0_103
*1547 FILLER_0_111
*1548 FILLER_0_113
*1549 FILLER_0_124
*1550 FILLER_0_13
*1551 FILLER_0_131
*1552 FILLER_0_139
*1553 FILLER_0_162
*1554 FILLER_0_169
*1555 FILLER_0_177
*1556 FILLER_0_182
*1557 FILLER_0_194
*1558 FILLER_0_197
*1559 FILLER_0_205
*1560 FILLER_0_21
*1561 FILLER_0_210
*1562 FILLER_0_222
*1563 FILLER_0_246
*1564 FILLER_0_253
*1565 FILLER_0_261
*1566 FILLER_0_266
*1567 FILLER_0_27
*1568 FILLER_0_274
*1569 FILLER_0_281
*1570 FILLER_0_287
*1571 FILLER_0_29
*1572 FILLER_0_295
*1573 FILLER_0_3
*1574 FILLER_0_307
*1575 FILLER_0_330
*1576 FILLER_0_337
*1577 FILLER_0_345
*1578 FILLER_0_350
*1579 FILLER_0_360
*1580 FILLER_0_365
*1581 FILLER_0_37
*1582 FILLER_0_373
*1583 FILLER_0_385
*1584 FILLER_0_391
*1585 FILLER_0_393
*1586 FILLER_0_405
*1587 FILLER_0_416
*1588 FILLER_0_42
*1589 FILLER_0_442
*1590 FILLER_0_470
*1591 FILLER_0_498
*1592 FILLER_0_505
*1593 FILLER_0_512
*1594 FILLER_0_54
*1595 FILLER_0_57
*1596 FILLER_0_79
*1597 FILLER_0_83
*1598 FILLER_0_95
*1599 FILLER_10_109
*1600 FILLER_10_121
*1601 FILLER_10_13
*1602 FILLER_10_133
*1603 FILLER_10_139
*1604 FILLER_10_141
*1605 FILLER_10_153
*1606 FILLER_10_165
*1607 FILLER_10_173
*1608 FILLER_10_180
*1609 FILLER_10_192
*1610 FILLER_10_202
*1611 FILLER_10_235
*1612 FILLER_10_248
*1613 FILLER_10_25
*1614 FILLER_10_262
*1615 FILLER_10_266
*1616 FILLER_10_288
*1617 FILLER_10_29
*1618 FILLER_10_299
*1619 FILLER_10_3
*1620 FILLER_10_307
*1621 FILLER_10_309
*1622 FILLER_10_321
*1623 FILLER_10_343
*1624 FILLER_10_352
*1625 FILLER_10_365
*1626 FILLER_10_377
*1627 FILLER_10_389
*1628 FILLER_10_401
*1629 FILLER_10_41
*1630 FILLER_10_413
*1631 FILLER_10_419
*1632 FILLER_10_421
*1633 FILLER_10_433
*1634 FILLER_10_445
*1635 FILLER_10_457
*1636 FILLER_10_469
*1637 FILLER_10_475
*1638 FILLER_10_477
*1639 FILLER_10_489
*1640 FILLER_10_512
*1641 FILLER_10_53
*1642 FILLER_10_65
*1643 FILLER_10_77
*1644 FILLER_10_83
*1645 FILLER_10_85
*1646 FILLER_10_97
*1647 FILLER_11_105
*1648 FILLER_11_111
*1649 FILLER_11_113
*1650 FILLER_11_125
*1651 FILLER_11_13
*1652 FILLER_11_137
*1653 FILLER_11_149
*1654 FILLER_11_161
*1655 FILLER_11_167
*1656 FILLER_11_169
*1657 FILLER_11_181
*1658 FILLER_11_185
*1659 FILLER_11_194
*1660 FILLER_11_214
*1661 FILLER_11_222
*1662 FILLER_11_225
*1663 FILLER_11_237
*1664 FILLER_11_241
*1665 FILLER_11_246
*1666 FILLER_11_25
*1667 FILLER_11_253
*1668 FILLER_11_265
*1669 FILLER_11_277
*1670 FILLER_11_281
*1671 FILLER_11_290
*1672 FILLER_11_299
*1673 FILLER_11_3
*1674 FILLER_11_303
*1675 FILLER_11_310
*1676 FILLER_11_322
*1677 FILLER_11_334
*1678 FILLER_11_337
*1679 FILLER_11_356
*1680 FILLER_11_368
*1681 FILLER_11_37
*1682 FILLER_11_380
*1683 FILLER_11_393
*1684 FILLER_11_405
*1685 FILLER_11_417
*1686 FILLER_11_429
*1687 FILLER_11_441
*1688 FILLER_11_447
*1689 FILLER_11_449
*1690 FILLER_11_461
*1691 FILLER_11_473
*1692 FILLER_11_485
*1693 FILLER_11_49
*1694 FILLER_11_500
*1695 FILLER_11_505
*1696 FILLER_11_512
*1697 FILLER_11_55
*1698 FILLER_11_57
*1699 FILLER_11_69
*1700 FILLER_11_81
*1701 FILLER_11_93
*1702 FILLER_12_109
*1703 FILLER_12_121
*1704 FILLER_12_133
*1705 FILLER_12_139
*1706 FILLER_12_141
*1707 FILLER_12_15
*1708 FILLER_12_153
*1709 FILLER_12_165
*1710 FILLER_12_177
*1711 FILLER_12_186
*1712 FILLER_12_194
*1713 FILLER_12_197
*1714 FILLER_12_209
*1715 FILLER_12_221
*1716 FILLER_12_233
*1717 FILLER_12_241
*1718 FILLER_12_248
*1719 FILLER_12_259
*1720 FILLER_12_27
*1721 FILLER_12_271
*1722 FILLER_12_279
*1723 FILLER_12_284
*1724 FILLER_12_29
*1725 FILLER_12_294
*1726 FILLER_12_3
*1727 FILLER_12_303
*1728 FILLER_12_307
*1729 FILLER_12_309
*1730 FILLER_12_313
*1731 FILLER_12_330
*1732 FILLER_12_346
*1733 FILLER_12_353
*1734 FILLER_12_361
*1735 FILLER_12_365
*1736 FILLER_12_377
*1737 FILLER_12_389
*1738 FILLER_12_401
*1739 FILLER_12_41
*1740 FILLER_12_413
*1741 FILLER_12_419
*1742 FILLER_12_421
*1743 FILLER_12_433
*1744 FILLER_12_445
*1745 FILLER_12_457
*1746 FILLER_12_469
*1747 FILLER_12_475
*1748 FILLER_12_477
*1749 FILLER_12_489
*1750 FILLER_12_495
*1751 FILLER_12_499
*1752 FILLER_12_507
*1753 FILLER_12_512
*1754 FILLER_12_53
*1755 FILLER_12_65
*1756 FILLER_12_77
*1757 FILLER_12_83
*1758 FILLER_12_85
*1759 FILLER_12_97
*1760 FILLER_13_105
*1761 FILLER_13_111
*1762 FILLER_13_113
*1763 FILLER_13_125
*1764 FILLER_13_137
*1765 FILLER_13_149
*1766 FILLER_13_161
*1767 FILLER_13_167
*1768 FILLER_13_169
*1769 FILLER_13_177
*1770 FILLER_13_200
*1771 FILLER_13_212
*1772 FILLER_13_225
*1773 FILLER_13_237
*1774 FILLER_13_245
*1775 FILLER_13_259
*1776 FILLER_13_269
*1777 FILLER_13_277
*1778 FILLER_13_28
*1779 FILLER_13_281
*1780 FILLER_13_289
*1781 FILLER_13_294
*1782 FILLER_13_3
*1783 FILLER_13_309
*1784 FILLER_13_322
*1785 FILLER_13_328