*SPEF "ieee 1481-1999"
*DESIGN "wrapped_hack_soc_dffram"
*DATE "11:11:11 Fri 11 11, 1111"
*VENDOR "OpenRCX"
*PROGRAM "Parallel Extraction"
*VERSION "1.0"
*DESIGN_FLOW "NAME_SCOPE LOCAL" "PIN_CAP NONE"
*DIVIDER /
*DELIMITER :
*BUS_DELIMITER []
*T_UNIT 1 NS
*C_UNIT 1 PF
*R_UNIT 1 OHM
*L_UNIT 1 HENRY

*NAME_MAP
*1 active
*2 io_in[0]
*3 io_in[10]
*4 io_in[11]
*5 io_in[12]
*6 io_in[13]
*7 io_in[14]
*8 io_in[15]
*9 io_in[16]
*10 io_in[17]
*11 io_in[18]
*12 io_in[19]
*13 io_in[1]
*14 io_in[20]
*15 io_in[21]
*16 io_in[22]
*17 io_in[23]
*18 io_in[24]
*19 io_in[25]
*20 io_in[26]
*21 io_in[27]
*22 io_in[28]
*23 io_in[29]
*24 io_in[2]
*25 io_in[30]
*26 io_in[31]
*27 io_in[32]
*28 io_in[33]
*29 io_in[34]
*30 io_in[35]
*31 io_in[36]
*32 io_in[37]
*33 io_in[3]
*34 io_in[4]
*35 io_in[5]
*36 io_in[6]
*37 io_in[7]
*38 io_in[8]
*39 io_in[9]
*40 io_oeb[0]
*41 io_oeb[10]
*42 io_oeb[11]
*43 io_oeb[12]
*44 io_oeb[13]
*45 io_oeb[14]
*46 io_oeb[15]
*47 io_oeb[16]
*48 io_oeb[17]
*49 io_oeb[18]
*50 io_oeb[19]
*51 io_oeb[1]
*52 io_oeb[20]
*53 io_oeb[21]
*54 io_oeb[22]
*55 io_oeb[23]
*56 io_oeb[24]
*57 io_oeb[25]
*58 io_oeb[26]
*59 io_oeb[27]
*60 io_oeb[28]
*61 io_oeb[29]
*62 io_oeb[2]
*63 io_oeb[30]
*64 io_oeb[31]
*65 io_oeb[32]
*66 io_oeb[33]
*67 io_oeb[34]
*68 io_oeb[35]
*69 io_oeb[36]
*70 io_oeb[37]
*71 io_oeb[3]
*72 io_oeb[4]
*73 io_oeb[5]
*74 io_oeb[6]
*75 io_oeb[7]
*76 io_oeb[8]
*77 io_oeb[9]
*78 io_out[0]
*79 io_out[10]
*80 io_out[11]
*81 io_out[12]
*82 io_out[13]
*83 io_out[14]
*84 io_out[15]
*85 io_out[16]
*86 io_out[17]
*87 io_out[18]
*88 io_out[19]
*89 io_out[1]
*90 io_out[20]
*91 io_out[21]
*92 io_out[22]
*93 io_out[23]
*94 io_out[24]
*95 io_out[25]
*96 io_out[26]
*97 io_out[27]
*98 io_out[28]
*99 io_out[29]
*100 io_out[2]
*101 io_out[30]
*102 io_out[31]
*103 io_out[32]
*104 io_out[33]
*105 io_out[34]
*106 io_out[35]
*107 io_out[36]
*108 io_out[37]
*109 io_out[3]
*110 io_out[4]
*111 io_out[5]
*112 io_out[6]
*113 io_out[7]
*114 io_out[8]
*115 io_out[9]
*116 la1_data_in[0]
*117 la1_data_in[10]
*118 la1_data_in[11]
*119 la1_data_in[12]
*120 la1_data_in[13]
*121 la1_data_in[14]
*122 la1_data_in[15]
*123 la1_data_in[16]
*124 la1_data_in[17]
*125 la1_data_in[18]
*126 la1_data_in[19]
*127 la1_data_in[1]
*128 la1_data_in[20]
*129 la1_data_in[21]
*130 la1_data_in[22]
*131 la1_data_in[23]
*132 la1_data_in[24]
*133 la1_data_in[25]
*134 la1_data_in[26]
*135 la1_data_in[27]
*136 la1_data_in[28]
*137 la1_data_in[29]
*138 la1_data_in[2]
*139 la1_data_in[30]
*140 la1_data_in[31]
*141 la1_data_in[3]
*142 la1_data_in[4]
*143 la1_data_in[5]
*144 la1_data_in[6]
*145 la1_data_in[7]
*146 la1_data_in[8]
*147 la1_data_in[9]
*148 la1_data_out[0]
*149 la1_data_out[10]
*150 la1_data_out[11]
*151 la1_data_out[12]
*152 la1_data_out[13]
*153 la1_data_out[14]
*154 la1_data_out[15]
*155 la1_data_out[16]
*156 la1_data_out[17]
*157 la1_data_out[18]
*158 la1_data_out[19]
*159 la1_data_out[1]
*160 la1_data_out[20]
*161 la1_data_out[21]
*162 la1_data_out[22]
*163 la1_data_out[23]
*164 la1_data_out[24]
*165 la1_data_out[25]
*166 la1_data_out[26]
*167 la1_data_out[27]
*168 la1_data_out[28]
*169 la1_data_out[29]
*170 la1_data_out[2]
*171 la1_data_out[30]
*172 la1_data_out[31]
*173 la1_data_out[3]
*174 la1_data_out[4]
*175 la1_data_out[5]
*176 la1_data_out[6]
*177 la1_data_out[7]
*178 la1_data_out[8]
*179 la1_data_out[9]
*180 la1_oenb[0]
*181 la1_oenb[10]
*182 la1_oenb[11]
*183 la1_oenb[12]
*184 la1_oenb[13]
*185 la1_oenb[14]
*186 la1_oenb[15]
*187 la1_oenb[16]
*188 la1_oenb[17]
*189 la1_oenb[18]
*190 la1_oenb[19]
*191 la1_oenb[1]
*192 la1_oenb[20]
*193 la1_oenb[21]
*194 la1_oenb[22]
*195 la1_oenb[23]
*196 la1_oenb[24]
*197 la1_oenb[25]
*198 la1_oenb[26]
*199 la1_oenb[27]
*200 la1_oenb[28]
*201 la1_oenb[29]
*202 la1_oenb[2]
*203 la1_oenb[30]
*204 la1_oenb[31]
*205 la1_oenb[3]
*206 la1_oenb[4]
*207 la1_oenb[5]
*208 la1_oenb[6]
*209 la1_oenb[7]
*210 la1_oenb[8]
*211 la1_oenb[9]
*214 wb_clk_i
*215 _0000_
*216 _0001_
*217 _0002_
*218 _0003_
*219 _0004_
*220 _0005_
*221 _0006_
*222 _0019_
*223 _0020_
*224 _0021_
*225 _0022_
*226 _0023_
*227 _0024_
*228 _0025_
*229 _0026_
*230 _0027_
*231 _0028_
*232 _0029_
*233 _0030_
*234 _0031_
*235 _0032_
*236 _0033_
*237 _0034_
*238 _0035_
*239 _0036_
*240 _0037_
*241 _0038_
*242 _0039_
*243 _0040_
*244 _0041_
*245 _0042_
*246 _0043_
*247 _0044_
*248 _0045_
*249 _0046_
*250 _0047_
*251 _0048_
*252 _0049_
*253 _0050_
*254 _0051_
*255 _0052_
*256 _0053_
*257 _0054_
*258 _0055_
*259 _0056_
*260 _0057_
*261 _0058_
*262 _0059_
*263 _0060_
*264 _0061_
*265 _0062_
*266 _0063_
*267 _0064_
*268 _0065_
*269 _0066_
*270 _0067_
*271 _0068_
*272 _0069_
*273 _0070_
*274 _0071_
*275 _0072_
*276 _0073_
*277 _0074_
*278 _0075_
*279 _0076_
*280 _0077_
*281 _0078_
*282 _0079_
*283 _0080_
*284 _0081_
*285 _0082_
*286 _0083_
*287 _0084_
*288 _0085_
*289 _0086_
*290 _0087_
*291 _0088_
*292 _0089_
*293 _0090_
*294 _0091_
*295 _0092_
*296 _0093_
*297 _0094_
*298 _0095_
*299 _0096_
*300 _0097_
*301 _0098_
*302 _0099_
*303 _0100_
*304 _0101_
*305 _0102_
*306 _0103_
*307 _0104_
*308 _0105_
*309 _0106_
*310 _0107_
*311 _0108_
*312 _0109_
*313 _0110_
*314 _0111_
*315 _0112_
*316 _0113_
*317 _0114_
*318 _0115_
*319 _0116_
*320 _0117_
*321 _0118_
*322 _0119_
*323 _0120_
*324 _0121_
*325 _0122_
*326 _0123_
*327 _0124_
*328 _0125_
*329 _0126_
*330 _0127_
*331 _0128_
*332 _0129_
*333 _0130_
*334 _0131_
*335 _0132_
*336 _0133_
*337 _0134_
*338 _0135_
*339 _0136_
*340 _0137_
*341 _0138_
*342 _0139_
*343 _0140_
*344 _0141_
*345 _0142_
*346 _0143_
*347 _0144_
*348 _0145_
*349 _0146_
*350 _0147_
*351 _0148_
*352 _0149_
*353 _0150_
*354 _0151_
*355 _0152_
*356 _0153_
*357 _0154_
*358 _0155_
*359 _0156_
*360 _0157_
*361 _0158_
*362 _0159_
*363 _0160_
*364 _0161_
*365 _0162_
*366 _0163_
*367 _0164_
*368 _0165_
*369 _0166_
*370 _0167_
*371 _0168_
*372 _0169_
*373 _0170_
*374 _0171_
*375 _0172_
*376 _0173_
*377 _0174_
*378 _0175_
*379 _0176_
*380 _0177_
*381 _0178_
*382 _0179_
*383 _0180_
*384 _0181_
*385 _0182_
*386 _0183_
*387 _0184_
*388 _0185_
*389 _0186_
*390 _0187_
*391 _0188_
*392 _0189_
*393 _0190_
*394 _0191_
*395 _0192_
*396 _0193_
*397 _0194_
*398 _0195_
*399 _0196_
*400 _0197_
*401 _0198_
*402 _0199_
*403 _0200_
*404 _0201_
*405 _0202_
*406 _0203_
*407 _0204_
*408 _0205_
*409 _0206_
*410 _0207_
*411 _0208_
*412 _0209_
*413 _0210_
*414 _0211_
*415 _0212_
*416 _0213_
*417 _0214_
*418 _0215_
*419 _0216_
*420 _0217_
*421 _0218_
*422 _0219_
*423 _0220_
*424 _0221_
*425 _0222_
*426 _0223_
*427 _0224_
*428 _0225_
*429 _0226_
*430 _0227_
*431 _0228_
*432 _0229_
*433 _0230_
*434 _0231_
*435 _0232_
*436 _0233_
*437 _0234_
*438 _0235_
*439 _0236_
*440 _0237_
*441 _0238_
*442 _0239_
*443 _0240_
*444 _0241_
*445 _0242_
*446 _0243_
*447 _0244_
*448 _0245_
*449 _0246_
*450 _0247_
*451 _0248_
*452 _0249_
*453 _0250_
*454 _0251_
*455 _0252_
*456 _0253_
*457 _0254_
*458 _0255_
*459 _0256_
*460 _0257_
*461 _0258_
*462 _0259_
*463 _0260_
*464 _0261_
*465 _0262_
*466 _0263_
*467 _0264_
*468 _0265_
*469 _0266_
*470 _0267_
*471 _0268_
*472 _0269_
*473 _0270_
*474 _0271_
*475 _0272_
*476 _0273_
*477 _0274_
*478 _0275_
*479 _0276_
*480 _0277_
*481 _0278_
*482 _0279_
*483 _0280_
*484 _0281_
*485 _0282_
*486 _0283_
*487 _0284_
*488 _0285_
*489 _0286_
*490 _0287_
*491 _0288_
*492 _0289_
*493 _0290_
*494 _0291_
*495 _0292_
*496 _0293_
*497 _0294_
*498 _0295_
*499 _0296_
*500 _0297_
*501 _0298_
*502 _0299_
*503 _0300_
*504 _0301_
*505 _0302_
*506 _0303_
*507 _0304_
*508 _0305_
*509 _0306_
*510 _0307_
*511 _0308_
*512 _0309_
*513 _0310_
*514 _0311_
*515 _0312_
*516 _0313_
*517 _0314_
*518 _0315_
*519 _0316_
*520 _0317_
*521 _0318_
*522 _0319_
*523 _0320_
*524 _0321_
*525 _0322_
*526 _0323_
*527 _0324_
*528 _0325_
*529 _0326_
*530 _0327_
*531 _0328_
*532 _0329_
*533 _0330_
*534 _0331_
*535 _0332_
*536 _0333_
*537 _0334_
*538 _0335_
*539 _0336_
*540 _0337_
*541 _0338_
*542 _0339_
*543 _0340_
*544 _0341_
*545 _0342_
*546 _0343_
*547 _0344_
*548 _0345_
*549 _0346_
*550 _0347_
*551 _0348_
*552 _0349_
*553 _0350_
*554 _0351_
*555 _0352_
*556 _0353_
*557 _0354_
*558 _0355_
*559 _0356_
*560 _0357_
*561 _0358_
*562 _0359_
*563 _0360_
*564 _0361_
*565 _0362_
*566 _0363_
*567 _0364_
*568 _0365_
*569 _0366_
*570 _0367_
*571 _0368_
*572 _0369_
*573 _0370_
*574 _0371_
*575 _0372_
*576 _0373_
*577 _0374_
*578 _0375_
*579 _0376_
*580 _0377_
*581 _0378_
*582 _0379_
*583 _0380_
*584 _0381_
*585 _0382_
*586 _0383_
*587 _0384_
*588 _0385_
*589 _0386_
*590 _0387_
*591 _0388_
*592 _0389_
*593 _0390_
*594 _0391_
*595 _0392_
*596 _0393_
*597 _0394_
*598 _0395_
*599 _0396_
*600 _0397_
*601 _0398_
*602 _0399_
*603 _0400_
*604 _0401_
*605 _0402_
*606 _0403_
*607 _0404_
*608 _0405_
*609 _0406_
*610 _0407_
*611 _0408_
*612 _0409_
*613 _0410_
*614 _0411_
*615 _0412_
*616 _0413_
*617 _0414_
*618 _0415_
*619 _0416_
*620 _0417_
*621 _0418_
*622 _0419_
*623 _0420_
*624 _0421_
*625 _0422_
*626 _0423_
*627 _0424_
*628 _0425_
*629 _0426_
*630 _0427_
*631 _0428_
*632 _0429_
*633 _0430_
*634 _0431_
*635 _0432_
*636 _0433_
*637 _0434_
*638 _0435_
*639 _0436_
*640 _0437_
*641 _0438_
*642 _0439_
*643 _0440_
*644 _0441_
*645 _0442_
*646 _0443_
*647 _0444_
*648 _0445_
*649 _0446_
*650 _0447_
*651 _0448_
*652 _0449_
*653 _0450_
*654 _0451_
*655 _0452_
*656 _0453_
*657 _0454_
*658 _0455_
*659 _0456_
*660 _0457_
*661 _0458_
*662 _0459_
*663 _0460_
*664 _0461_
*665 _0462_
*666 _0463_
*667 _0464_
*668 _0465_
*669 _0466_
*670 _0467_
*671 _0468_
*672 _0469_
*673 _0470_
*674 _0471_
*675 _0472_
*676 _0473_
*677 _0474_
*678 _0475_
*679 _0476_
*680 _0477_
*681 _0478_
*682 _0479_
*683 _0480_
*684 _0481_
*685 _0482_
*686 _0483_
*687 _0484_
*688 _0485_
*689 _0486_
*690 _0487_
*691 _0488_
*692 _0489_
*693 _0490_
*694 _0491_
*695 _0492_
*696 _0493_
*697 _0494_
*698 _0495_
*699 _0496_
*700 _0497_
*701 _0498_
*702 _0499_
*703 _0500_
*704 _0501_
*705 _0502_
*706 _0503_
*707 _0504_
*708 _0505_
*709 _0506_
*710 _0507_
*711 _0508_
*712 _0509_
*713 _0510_
*714 _0511_
*715 _0512_
*716 _0513_
*717 _0514_
*718 _0515_
*719 _0516_
*720 _0517_
*721 _0518_
*722 _0519_
*723 _0520_
*724 _0521_
*725 _0522_
*726 _0523_
*727 _0524_
*728 _0525_
*729 _0526_
*730 _0527_
*731 _0528_
*732 _0529_
*733 _0530_
*734 _0531_
*735 _0532_
*736 _0533_
*737 _0534_
*738 _0535_
*739 _0536_
*740 _0537_
*741 _0538_
*742 _0539_
*743 _0540_
*744 _0541_
*745 _0542_
*746 _0543_
*747 _0544_
*748 _0545_
*749 _0546_
*750 _0547_
*751 _0548_
*752 _0549_
*753 _0550_
*754 _0551_
*755 _0552_
*756 _0553_
*757 _0554_
*758 _0555_
*759 _0556_
*760 _0557_
*761 _0558_
*762 _0559_
*763 _0560_
*764 _0561_
*765 _0562_
*766 _0563_
*767 _0564_
*768 _0565_
*769 _0566_
*770 _0567_
*771 _0568_
*772 _0569_
*773 _0570_
*774 _0571_
*775 _0572_
*776 _0573_
*777 _0574_
*778 _0575_
*779 _0576_
*780 _0577_
*781 _0578_
*782 _0579_
*783 _0580_
*784 _0581_
*785 _0582_
*786 _0583_
*787 _0584_
*788 _0585_
*789 _0586_
*790 _0587_
*791 _0588_
*792 _0589_
*793 _0590_
*794 _0591_
*795 _0592_
*796 _0593_
*797 _0594_
*798 _0595_
*799 _0596_
*800 _0597_
*801 _0598_
*802 _0599_
*803 _0600_
*804 _0601_
*805 _0602_
*806 _0603_
*807 _0604_
*808 _0605_
*809 _0606_
*810 _0607_
*811 _0608_
*812 _0609_
*813 _0610_
*814 _0611_
*815 _0612_
*816 _0613_
*817 _0614_
*818 _0615_
*819 _0616_
*820 _0617_
*821 _0618_
*822 _0619_
*823 _0620_
*824 _0621_
*825 _0622_
*826 _0623_
*827 _0624_
*828 _0625_
*829 _0626_
*830 _0627_
*831 _0628_
*832 _0629_
*833 _0630_
*834 _0631_
*835 _0632_
*836 _0633_
*837 _0634_
*838 _0635_
*839 _0636_
*840 _0637_
*841 _0638_
*842 _0639_
*843 _0640_
*844 _0641_
*845 _0642_
*846 _0643_
*847 _0644_
*848 _0645_
*849 _0646_
*850 _0647_
*851 _0648_
*852 _0649_
*853 _0650_
*854 _0651_
*855 _0652_
*856 _0653_
*857 _0654_
*858 _0655_
*859 _0656_
*860 _0657_
*861 _0658_
*862 _0659_
*863 _0660_
*864 _0661_
*865 _0662_
*866 _0663_
*867 _0664_
*868 _0665_
*869 _0666_
*870 _0667_
*871 _0668_
*872 _0669_
*873 _0670_
*874 _0671_
*875 _0672_
*876 _0673_
*877 _0674_
*878 _0675_
*879 _0676_
*880 _0677_
*881 _0678_
*882 _0679_
*883 _0680_
*884 _0681_
*885 _0682_
*886 _0683_
*887 _0684_
*888 _0685_
*889 _0686_
*890 _0687_
*891 _0688_
*892 _0689_
*893 _0690_
*894 _0691_
*895 _0692_
*896 _0693_
*897 _0694_
*898 _0695_
*899 _0696_
*900 _0697_
*901 _0698_
*902 _0699_
*903 _0700_
*904 _0701_
*905 _0702_
*906 _0703_
*907 _0704_
*908 _0705_
*909 _0706_
*910 _0707_
*911 _0708_
*912 _0709_
*913 _0710_
*914 _0711_
*915 _0712_
*916 _0713_
*917 _0714_
*918 _0715_
*919 _0716_
*920 _0717_
*921 _0718_
*922 _0719_
*923 _0720_
*924 _0721_
*925 _0722_
*926 _0723_
*927 _0724_
*928 _0725_
*929 _0726_
*930 _0727_
*931 _0728_
*932 _0729_
*933 _0730_
*934 _0731_
*935 _0732_
*936 _0733_
*937 _0734_
*938 _0735_
*939 _0736_
*940 _0737_
*941 _0738_
*942 _0739_
*943 _0740_
*944 _0741_
*945 _0742_
*946 _0743_
*947 _0744_
*948 _0745_
*949 _0746_
*950 _0747_
*951 _0748_
*952 _0749_
*953 _0750_
*954 _0751_
*955 _0752_
*956 _0753_
*957 _0754_
*958 _0755_
*959 _0756_
*960 _0757_
*961 _0758_
*962 _0759_
*963 _0760_
*964 _0761_
*965 _0762_
*966 _0763_
*967 _0764_
*968 _0765_
*969 _0766_
*970 _0767_
*971 _0768_
*972 _0769_
*973 _0770_
*974 _0771_
*975 _0772_
*976 _0773_
*977 _0774_
*978 _0775_
*979 _0776_
*980 _0777_
*981 _0778_
*982 _0779_
*983 _0780_
*984 _0781_
*985 _0782_
*986 _0783_
*987 _0784_
*988 _0785_
*989 _0786_
*990 _0787_
*991 _0788_
*992 _0789_
*993 _0790_
*994 _0791_
*995 _0792_
*996 _0793_
*997 _0794_
*998 _0795_
*999 _0796_
*1000 _0797_
*1001 _0798_
*1002 _0799_
*1003 _0800_
*1004 _0801_
*1005 _0802_
*1006 _0803_
*1007 _0804_
*1008 _0805_
*1009 _0806_
*1010 _0807_
*1011 _0808_
*1012 _0809_
*1013 _0810_
*1014 _0811_
*1015 _0812_
*1016 _0813_
*1017 _0814_
*1018 _0815_
*1019 _0816_
*1020 _0817_
*1021 _0818_
*1022 _0819_
*1023 _0820_
*1024 _0821_
*1025 _0822_
*1026 _0823_
*1027 _0824_
*1028 _0825_
*1029 _0826_
*1030 _0827_
*1031 _0828_
*1032 _0829_
*1033 _0830_
*1034 _0831_
*1035 _0832_
*1036 _0833_
*1037 _0834_
*1038 _0835_
*1039 _0836_
*1040 _0837_
*1041 _0838_
*1042 _0839_
*1043 _0840_
*1044 _0841_
*1045 _0842_
*1046 _0843_
*1047 _0844_
*1048 _0845_
*1049 _0846_
*1050 _0847_
*1051 _0848_
*1052 _0849_
*1053 _0850_
*1054 _0851_
*1055 _0852_
*1056 _0853_
*1057 _0854_
*1058 _0855_
*1059 _0856_
*1060 _0857_
*1061 _0858_
*1062 _0859_
*1063 _0860_
*1064 _0861_
*1065 _0862_
*1066 _0863_
*1067 _0864_
*1068 _0865_
*1069 _0866_
*1070 _0867_
*1071 _0868_
*1072 _0869_
*1073 _0870_
*1074 _0871_
*1075 _0872_
*1076 _0873_
*1077 _0874_
*1078 _0875_
*1079 _0876_
*1080 _0877_
*1081 _0878_
*1082 _0879_
*1083 _0880_
*1084 _0881_
*1085 _0882_
*1086 _0883_
*1087 _0884_
*1088 _0885_
*1089 _0886_
*1090 _0887_
*1091 _0888_
*1092 _0889_
*1093 _0890_
*1094 _0891_
*1095 _0892_
*1096 _0893_
*1097 _0894_
*1098 _0895_
*1099 _0896_
*1100 _0897_
*1101 _0898_
*1102 _0899_
*1103 _0900_
*1104 _0901_
*1105 _0902_
*1106 _0903_
*1107 _0904_
*1108 _0905_
*1109 _0906_
*1110 _0907_
*1111 _0908_
*1112 _0909_
*1113 _0910_
*1114 _0911_
*1115 _0912_
*1116 _0913_
*1117 _0914_
*1118 _0915_
*1119 _0916_
*1120 _0917_
*1121 _0918_
*1122 _0919_
*1123 _0920_
*1124 _0921_
*1125 _0922_
*1126 _0923_
*1127 _0924_
*1128 _0925_
*1129 _0926_
*1130 _0927_
*1131 _0928_
*1132 _0929_
*1133 _0930_
*1134 _0931_
*1135 _0932_
*1136 _0933_
*1137 _0934_
*1138 _0935_
*1139 _0936_
*1140 _0937_
*1141 _0938_
*1142 _0939_
*1143 _0940_
*1144 _0941_
*1145 _0942_
*1146 _0943_
*1147 _0944_
*1148 _0945_
*1149 _0946_
*1150 _0947_
*1151 _0948_
*1152 _0949_
*1153 _0950_
*1154 _0951_
*1155 _0952_
*1156 _0953_
*1157 _0954_
*1158 _0955_
*1159 _0956_
*1160 _0957_
*1161 _0958_
*1162 _0959_
*1163 _0960_
*1164 _0961_
*1165 _0962_
*1166 _0963_
*1167 _0964_
*1168 _0965_
*1169 _0966_
*1170 _0967_
*1171 _0968_
*1172 _0969_
*1173 _0970_
*1174 _0971_
*1175 _0972_
*1176 _0973_
*1177 _0974_
*1178 _0975_
*1179 _0976_
*1180 _0977_
*1181 _0978_
*1182 _0979_
*1183 _0980_
*1184 _0981_
*1185 _0982_
*1186 _0983_
*1187 _0984_
*1188 _0985_
*1189 _0986_
*1190 _0987_
*1191 _0988_
*1192 _0989_
*1193 _0990_
*1194 _0991_
*1195 _0992_
*1196 _0993_
*1197 _0994_
*1198 _0995_
*1199 _0996_
*1200 _0997_
*1201 _0998_
*1202 _0999_
*1203 _1000_
*1204 _1001_
*1205 _1002_
*1206 _1003_
*1207 _1004_
*1208 _1005_
*1209 _1006_
*1210 _1007_
*1211 _1008_
*1212 _1009_
*1213 _1010_
*1214 _1011_
*1215 _1012_
*1216 _1013_
*1217 _1014_
*1218 _1015_
*1219 _1016_
*1220 _1017_
*1221 _1018_
*1222 _1019_
*1223 _1020_
*1224 _1021_
*1225 _1022_
*1226 _1023_
*1227 _1024_
*1228 _1025_
*1229 _1026_
*1230 _1027_
*1231 _1028_
*1232 _1029_
*1233 _1030_
*1234 _1031_
*1235 _1032_
*1236 _1033_
*1237 _1034_
*1238 _1035_
*1239 _1036_
*1240 _1037_
*1241 _1038_
*1242 _1039_
*1243 _1040_
*1244 _1041_
*1245 _1042_
*1246 _1043_
*1247 _1044_
*1248 _1045_
*1249 _1046_
*1250 _1047_
*1251 _1048_
*1252 _1049_
*1253 _1050_
*1254 _1051_
*1255 _1052_
*1256 _1053_
*1257 _1054_
*1258 _1055_
*1259 _1056_
*1260 _1057_
*1261 _1058_
*1262 _1059_
*1263 _1060_
*1264 _1061_
*1265 _1062_
*1266 _1063_
*1267 _1064_
*1268 _1065_
*1269 _1066_
*1270 _1067_
*1271 _1068_
*1272 _1069_
*1273 _1070_
*1274 _1071_
*1275 _1072_
*1276 _1073_
*1277 _1074_
*1278 _1075_
*1279 _1076_
*1280 _1077_
*1281 _1078_
*1282 _1079_
*1283 _1080_
*1284 _1081_
*1285 _1082_
*1286 _1083_
*1287 _1084_
*1288 _1085_
*1289 _1086_
*1290 _1087_
*1291 _1088_
*1292 _1089_
*1293 _1090_
*1294 _1091_
*1295 _1092_
*1296 _1093_
*1297 _1094_
*1298 _1095_
*1299 _1096_
*1300 _1097_
*1301 _1098_
*1302 _1099_
*1303 _1100_
*1304 _1101_
*1305 _1102_
*1306 _1103_
*1307 _1104_
*1308 _1105_
*1309 _1106_
*1310 _1107_
*1311 _1108_
*1312 _1109_
*1313 _1110_
*1314 _1111_
*1315 _1112_
*1316 _1113_
*1317 _1114_
*1318 _1115_
*1319 _1116_
*1320 _1117_
*1321 _1118_
*1322 _1119_
*1323 _1120_
*1324 _1121_
*1325 _1122_
*1326 _1123_
*1327 _1124_
*1328 _1125_
*1329 _1126_
*1330 _1127_
*1331 _1128_
*1332 _1129_
*1333 _1130_
*1334 _1131_
*1335 _1132_
*1336 _1133_
*1337 _1134_
*1338 _1135_
*1339 _1136_
*1340 _1137_
*1341 _1138_
*1342 _1139_
*1343 _1140_
*1344 _1141_
*1345 _1142_
*1346 _1143_
*1347 _1144_
*1348 _1145_
*1349 _1146_
*1350 _1147_
*1351 _1148_
*1352 _1149_
*1353 _1150_
*1354 _1151_
*1355 _1152_
*1356 _1153_
*1357 _1154_
*1358 _1155_
*1359 _1156_
*1360 _1157_
*1361 _1158_
*1362 _1159_
*1363 _1160_
*1364 _1161_
*1365 _1162_
*1366 _1163_
*1367 _1164_
*1368 _1165_
*1369 _1166_
*1370 _1167_
*1371 _1168_
*1372 _1169_
*1373 _1170_
*1374 _1171_
*1375 _1172_
*1376 _1173_
*1377 _1174_
*1378 _1175_
*1379 _1176_
*1380 _1177_
*1381 _1178_
*1382 _1179_
*1383 _1180_
*1384 _1181_
*1385 _1182_
*1386 _1183_
*1387 _1184_
*1388 _1185_
*1389 _1186_
*1390 _1187_
*1391 _1188_
*1392 _1189_
*1393 _1190_
*1394 _1191_
*1395 _1192_
*1396 _1193_
*1397 _1194_
*1398 _1195_
*1399 _1196_
*1400 _1197_
*1401 _1198_
*1402 _1199_
*1403 _1200_
*1404 _1201_
*1405 _1202_
*1406 _1203_
*1407 _1204_
*1408 _1205_
*1409 _1206_
*1410 _1207_
*1411 _1208_
*1412 _1209_
*1413 _1210_
*1414 _1211_
*1415 _1212_
*1416 _1213_
*1417 _1214_
*1418 _1215_
*1419 _1216_
*1420 _1217_
*1421 _1218_
*1422 _1219_
*1423 _1220_
*1424 _1221_
*1425 _1222_
*1426 _1223_
*1427 _1224_
*1428 _1225_
*1429 _1226_
*1430 _1227_
*1431 _1228_
*1432 _1229_
*1433 _1230_
*1434 _1231_
*1435 _1232_
*1436 _1233_
*1437 _1234_
*1438 _1235_
*1439 _1236_
*1440 _1237_
*1441 _1238_
*1442 _1239_
*1443 _1240_
*1444 _1241_
*1445 _1242_
*1446 _1243_
*1447 _1244_
*1448 _1245_
*1449 _1246_
*1450 _1247_
*1451 _1248_
*1452 _1249_
*1453 _1250_
*1454 _1251_
*1455 _1252_
*1456 _1253_
*1457 _1254_
*1458 _1255_
*1459 _1256_
*1460 _1257_
*1461 _1258_
*1462 _1259_
*1463 _1260_
*1464 _1261_
*1465 _1262_
*1466 _1263_
*1467 _1264_
*1468 _1265_
*1469 _1266_
*1470 _1267_
*1471 _1268_
*1472 _1269_
*1473 _1270_
*1474 _1271_
*1475 _1272_
*1476 _1273_
*1477 _1274_
*1478 _1275_
*1479 _1276_
*1480 _1277_
*1481 _1278_
*1482 _1279_
*1483 _1280_
*1484 _1281_
*1485 _1282_
*1486 _1283_
*1487 _1284_
*1488 _1285_
*1489 _1286_
*1490 _1287_
*1491 _1288_
*1492 _1289_
*1493 _1290_
*1494 _1291_
*1495 _1292_
*1496 _1293_
*1497 _1294_
*1498 _1295_
*1499 _1296_
*1500 _1297_
*1501 _1298_
*1502 _1299_
*1503 _1300_
*1504 _1301_
*1505 _1302_
*1506 _1303_
*1507 _1304_
*1508 _1305_
*1509 _1306_
*1510 _1307_
*1511 _1308_
*1512 _1309_
*1513 _1310_
*1514 _1311_
*1515 _1312_
*1516 _1313_
*1517 _1314_
*1518 _1315_
*1519 _1316_
*1520 _1317_
*1521 _1318_
*1522 _1319_
*1523 _1320_
*1524 _1321_
*1525 _1322_
*1526 _1323_
*1527 _1324_
*1528 _1325_
*1529 _1326_
*1530 _1327_
*1531 _1328_
*1532 _1329_
*1533 _1330_
*1534 _1331_
*1535 _1332_
*1536 _1333_
*1537 _1334_
*1538 _1335_
*1539 _1336_
*1540 _1337_
*1541 _1338_
*1542 _1339_
*1543 _1340_
*1544 _1341_
*1545 _1342_
*1546 _1343_
*1547 _1344_
*1548 _1345_
*1549 _1346_
*1550 _1347_
*1551 _1348_
*1552 _1349_
*1553 _1350_
*1554 _1351_
*1555 _1352_
*1556 _1353_
*1557 _1354_
*1558 _1355_
*1559 _1356_
*1560 _1357_
*1561 _1358_
*1562 _1359_
*1563 _1360_
*1564 _1361_
*1565 _1362_
*1566 _1363_
*1567 _1364_
*1568 _1365_
*1569 _1366_
*1570 _1367_
*1571 _1368_
*1572 _1369_
*1573 _1370_
*1574 _1371_
*1575 _1372_
*1576 _1373_
*1577 _1374_
*1578 _1375_
*1579 _1376_
*1580 _1377_
*1581 _1378_
*1582 _1379_
*1583 _1380_
*1584 _1381_
*1585 _1382_
*1586 _1383_
*1587 _1384_
*1588 _1385_
*1589 _1386_
*1590 _1387_
*1591 _1388_
*1592 _1389_
*1593 _1390_
*1594 _1391_
*1595 _1392_
*1596 _1393_
*1597 _1394_
*1598 _1395_
*1599 _1396_
*1600 _1397_
*1601 _1398_
*1602 _1399_
*1603 _1400_
*1604 _1401_
*1605 _1402_
*1606 _1403_
*1607 _1404_
*1608 _1405_
*1609 _1406_
*1610 _1407_
*1611 _1408_
*1612 _1409_
*1613 _1410_
*1614 _1411_
*1615 _1412_
*1616 _1413_
*1617 _1414_
*1618 _1415_
*1619 _1416_
*1620 _1417_
*1621 _1418_
*1622 _1419_
*1623 _1420_
*1624 _1421_
*1625 _1422_
*1626 _1423_
*1627 _1424_
*1628 _1425_
*1629 _1426_
*1630 _1427_
*1631 _1428_
*1632 _1429_
*1633 _1430_
*1634 _1431_
*1635 _1432_
*1636 _1433_
*1637 _1434_
*1638 _1435_
*1639 _1436_
*1640 _1437_
*1641 _1438_
*1642 _1439_
*1643 _1440_
*1644 _1441_
*1645 _1442_
*1646 _1443_
*1647 _1444_
*1648 _1445_
*1649 _1446_
*1650 _1447_
*1651 _1448_
*1652 _1449_
*1653 _1450_
*1654 _1451_
*1655 _1452_
*1656 _1453_
*1657 _1454_
*1658 _1455_
*1659 _1456_
*1660 _1457_
*1661 _1458_
*1662 _1459_
*1663 _1460_
*1664 _1461_
*1665 _1462_
*1666 _1463_
*1667 _1464_
*1668 _1465_
*1669 _1466_
*1670 _1467_
*1671 _1468_
*1672 _1469_
*1673 _1470_
*1674 _1471_
*1675 _1472_
*1676 _1473_
*1677 _1474_
*1678 _1475_
*1679 _1476_
*1680 _1477_
*1681 _1478_
*1682 _1479_
*1683 _1480_
*1684 _1481_
*1685 _1482_
*1686 _1483_
*1687 _1484_
*1688 _1485_
*1689 _1486_
*1690 _1487_
*1691 _1488_
*1692 _1489_
*1693 _1490_
*1694 _1491_
*1695 _1492_
*1696 _1493_
*1697 _1494_
*1698 _1495_
*1699 _1496_
*1700 _1497_
*1701 _1498_
*1702 _1499_
*1703 _1500_
*1704 _1501_
*1705 _1502_
*1706 _1503_
*1707 _1504_
*1708 _1505_
*1709 _1506_
*1710 _1507_
*1711 _1508_
*1712 _1509_
*1713 _1510_
*1714 _1511_
*1715 _1512_
*1716 _1513_
*1717 _1514_
*1718 _1515_
*1719 _1516_
*1720 _1517_
*1721 _1518_
*1722 _1519_
*1723 _1520_
*1724 _1521_
*1725 _1522_
*1726 _1523_
*1727 _1524_
*1728 _1525_
*1729 _1526_
*1730 _1527_
*1731 _1528_
*1732 _1529_
*1733 _1530_
*1734 _1531_
*1735 _1532_
*1736 _1533_
*1737 _1534_
*1738 _1535_
*1739 _1536_
*1740 _1537_
*1741 _1538_
*1742 _1539_
*1743 _1540_
*1744 _1541_
*1745 _1542_
*1746 _1543_
*1747 _1544_
*1748 _1545_
*1749 _1546_
*1750 _1547_
*1751 _1548_
*1752 _1549_
*1753 _1550_
*1754 _1551_
*1755 _1552_
*1756 _1553_
*1757 _1554_
*1758 _1555_
*1759 _1556_
*1760 _1557_
*1761 _1558_
*1762 _1559_
*1763 _1560_
*1764 _1561_
*1765 _1562_
*1766 _1563_
*1767 _1564_
*1768 _1565_
*1769 _1566_
*1770 _1567_
*1771 _1568_
*1772 _1569_
*1773 _1570_
*1774 _1571_
*1775 _1572_
*1776 _1573_
*1777 _1574_
*1778 _1575_
*1779 _1576_
*1780 _1577_
*1781 _1578_
*1782 _1579_
*1783 _1580_
*1784 _1581_
*1785 _1582_
*1786 _1583_
*1787 _1584_
*1788 _1585_
*1789 _1586_
*1790 _1587_
*1791 _1588_
*1792 _1589_
*1793 _1590_
*1794 _1591_
*1795 _1592_
*1796 _1593_
*1797 _1594_
*1798 _1595_
*1799 _1596_
*1800 _1597_
*1801 _1598_
*1802 _1599_
*1803 _1600_
*1804 _1601_
*1805 _1602_
*1806 _1603_
*1807 _1604_
*1808 _1605_
*1809 _1606_
*1810 _1607_
*1811 _1608_
*1812 _1609_
*1813 _1610_
*1814 _1611_
*1815 _1612_
*1816 _1613_
*1817 _1614_
*1818 _1615_
*1819 _1616_
*1820 _1617_
*1821 _1618_
*1822 _1619_
*1823 _1620_
*1824 _1621_
*1825 _1622_
*1826 _1623_
*1827 _1624_
*1828 _1625_
*1829 _1626_
*1830 _1627_
*1831 _1628_
*1832 _1629_
*1833 _1630_
*1834 _1631_
*1835 _1632_
*1836 _1633_
*1837 _1634_
*1838 _1635_
*1839 _1636_
*1840 _1637_
*1841 _1638_
*1842 _1639_
*1843 _1640_
*1844 _1641_
*1845 _1642_
*1846 _1643_
*1847 _1644_
*1848 _1645_
*1849 _1646_
*1850 _1647_
*1851 _1648_
*1852 _1649_
*1853 _1650_
*1854 _1651_
*1855 _1652_
*1856 _1653_
*1857 _1654_
*1858 _1655_
*1859 _1656_
*1860 _1657_
*1861 _1658_
*1862 _1659_
*1863 _1660_
*1864 _1661_
*1865 _1662_
*1866 _1663_
*1867 _1664_
*1868 _1665_
*1869 _1666_
*1870 _1667_
*1871 _1668_
*1872 _1669_
*1873 _1670_
*1874 _1671_
*1875 _1672_
*1876 _1673_
*1877 _1674_
*1878 _1675_
*1879 _1676_
*1880 _1677_
*1881 _1678_
*1882 _1679_
*1883 _1680_
*1884 _1681_
*1885 _1682_
*1886 _1683_
*1887 _1684_
*1888 _1685_
*1889 _1686_
*1890 _1687_
*1891 _1688_
*1892 _1689_
*1893 _1690_
*1894 _1691_
*1895 _1692_
*1896 _1693_
*1897 _1694_
*1898 _1695_
*1899 _1696_
*1900 _1697_
*1901 _1698_
*1902 _1699_
*1903 _1700_
*1904 _1701_
*1905 _1702_
*1906 _1703_
*1907 _1704_
*1908 _1705_
*1909 _1706_
*1910 _1707_
*1911 _1708_
*1912 _1709_
*1913 _1710_
*1914 _1711_
*1915 _1712_
*1916 _1713_
*1917 _1714_
*1918 _1715_
*1919 _1716_
*1920 _1717_
*1921 _1718_
*1922 _1719_
*1923 _1720_
*1924 _1721_
*1925 _1722_
*1926 _1723_
*1927 _1724_
*1928 _1725_
*1929 _1726_
*1930 _1727_
*1931 _1728_
*1932 _1729_
*1933 _1730_
*1934 _1731_
*1935 _1732_
*1936 _1733_
*1937 _1734_
*1938 _1735_
*1939 _1736_
*1940 _1737_
*1941 _1738_
*1942 _1739_
*1943 _1740_
*1944 _1741_
*1945 _1742_
*1946 _1743_
*1947 _1744_
*1948 _1745_
*1949 _1746_
*1950 _1747_
*1951 _1748_
*1952 _1749_
*1953 _1750_
*1954 _1751_
*1955 _1752_
*1956 _1753_
*1957 _1754_
*1958 _1755_
*1959 _1756_
*1960 _1757_
*1961 _1758_
*1962 _1759_
*1963 _1760_
*1964 _1761_
*1965 _1762_
*1966 _1763_
*1967 _1764_
*1968 _1765_
*1969 _1766_
*1970 _1767_
*1971 _1768_
*1972 _1769_
*1973 _1770_
*1974 _1771_
*1975 _1772_
*1976 _1773_
*1977 _1774_
*1978 _1775_
*1979 _1776_
*1980 _1777_
*1981 _1778_
*1982 _1779_
*1983 _1780_
*1984 _1781_
*1985 _1782_
*1986 _1783_
*1987 _1784_
*1988 _1785_
*1989 _1786_
*1990 _1787_
*1991 _1788_
*1992 _1789_
*1993 _1790_
*1994 _1791_
*1995 _1792_
*1996 _1793_
*1997 _1794_
*1998 _1795_
*1999 _1796_
*2000 _1797_
*2001 _1798_
*2002 _1799_
*2003 _1800_
*2004 _1801_
*2005 _1802_
*2006 _1803_
*2007 _1804_
*2008 _1805_
*2009 _1806_
*2010 _1807_
*2011 _1808_
*2012 _1809_
*2013 _1810_
*2014 _1811_
*2015 _1812_
*2016 _1813_
*2017 _1814_
*2018 _1815_
*2019 _1816_
*2020 _1817_
*2021 _1818_
*2022 _1819_
*2023 _1820_
*2024 _1821_
*2025 _1822_
*2026 _1823_
*2027 _1824_
*2028 _1825_
*2029 _1826_
*2030 _1827_
*2031 _1828_
*2032 _1829_
*2033 _1830_
*2034 _1831_
*2035 _1832_
*2036 _1833_
*2037 _1834_
*2038 _1835_
*2039 _1836_
*2040 _1837_
*2041 _1838_
*2042 _1839_
*2043 _1840_
*2044 _1841_
*2045 _1842_
*2046 _1843_
*2047 _1844_
*2048 _1845_
*2049 _1846_
*2050 _1847_
*2051 _1848_
*2052 _1849_
*2053 _1850_
*2054 _1851_
*2055 _1852_
*2056 _1853_
*2057 _1854_
*2058 _1855_
*2059 _1856_
*2060 _1857_
*2061 _1858_
*2062 _1859_
*2063 _1860_
*2064 _1861_
*2065 _1862_
*2066 _1863_
*2067 _1864_
*2068 _1865_
*2069 _1866_
*2070 _1867_
*2071 _1868_
*2072 _1869_
*2073 _1870_
*2074 _1871_
*2075 _1872_
*2076 _1873_
*2077 _1874_
*2078 _1875_
*2079 _1876_
*2080 _1877_
*2081 _1878_
*2082 _1879_
*2083 _1880_
*2084 _1881_
*2085 _1882_
*2086 _1883_
*2087 _1884_
*2088 _1885_
*2089 _1886_
*2090 _1887_
*2091 _1888_
*2092 _1889_
*2093 _1890_
*2094 _1891_
*2095 _1892_
*2096 _1893_
*2097 _1894_
*2098 _1895_
*2099 _1896_
*2100 _1897_
*2101 _1898_
*2102 _1899_
*2103 _1900_
*2104 _1901_
*2105 _1902_
*2106 _1903_
*2107 _1904_
*2108 _1905_
*2109 _1906_
*2110 _1907_
*2111 _1908_
*2112 _1909_
*2113 _1910_
*2114 _1911_
*2115 _1912_
*2116 _1913_
*2117 _1914_
*2118 _1915_
*2119 _1916_
*2120 _1917_
*2121 _1918_
*2122 _1919_
*2123 _1920_
*2124 _1921_
*2125 _1922_
*2126 _1923_
*2127 _1924_
*2128 _1925_
*2129 _1926_
*2130 _1927_
*2131 _1928_
*2132 _1929_
*2133 _1930_
*2134 _1931_
*2135 _1932_
*2136 _1933_
*2137 _1934_
*2138 _1935_
*2139 _1936_
*2140 _1937_
*2141 _1938_
*2142 _1939_
*2143 _1940_
*2144 _1941_
*2145 _1942_
*2146 _1943_
*2147 _1944_
*2148 _1945_
*2149 _1946_
*2150 _1947_
*2151 _1948_
*2152 _1949_
*2153 _1950_
*2154 _1951_
*2155 _1952_
*2156 _1953_
*2157 _1954_
*2158 _1955_
*2159 _1956_
*2160 _1957_
*2161 _1958_
*2162 _1959_
*2163 _1960_
*2164 _1961_
*2165 _1962_
*2166 _1963_
*2167 _1964_
*2168 _1965_
*2169 _1966_
*2170 _1967_
*2171 _1968_
*2172 _1969_
*2173 _1970_
*2174 _1971_
*2175 _1972_
*2176 _1973_
*2177 _1974_
*2178 _1975_
*2179 _1976_
*2180 _1977_
*2181 _1978_
*2182 _1979_
*2183 _1980_
*2184 _1981_
*2185 _1982_
*2186 _1983_
*2187 _1984_
*2188 _1985_
*2189 _1986_
*2190 _1987_
*2191 _1988_
*2192 _1989_
*2193 _1990_
*2194 _1991_
*2195 _1992_
*2196 _1993_
*2197 _1994_
*2198 _1995_
*2199 _1996_
*2200 _1997_
*2201 _1998_
*2202 _1999_
*2203 _2000_
*2204 _2001_
*2205 _2002_
*2206 _2003_
*2207 _2004_
*2208 _2005_
*2209 _2006_
*2210 _2007_
*2211 _2008_
*2212 _2009_
*2213 _2010_
*2214 _2011_
*2215 _2012_
*2216 _2013_
*2217 _2014_
*2218 _2015_
*2219 _2016_
*2220 _2017_
*2221 _2018_
*2222 _2019_
*2223 _2020_
*2224 _2021_
*2225 _2022_
*2226 _2023_
*2227 _2024_
*2228 _2025_
*2229 _2026_
*2230 _2027_
*2231 _2028_
*2232 _2029_
*2233 _2030_
*2234 _2031_
*2235 _2032_
*2236 _2033_
*2237 _2034_
*2238 _2035_
*2239 _2036_
*2240 _2037_
*2241 _2038_
*2242 _2039_
*2243 _2040_
*2244 _2041_
*2245 _2042_
*2246 _2043_
*2247 _2044_
*2248 _2045_
*2249 _2046_
*2250 _2047_
*2251 _2048_
*2252 _2049_
*2253 _2050_
*2254 _2051_
*2255 _2052_
*2256 _2053_
*2257 _2054_
*2258 _2055_
*2259 _2056_
*2260 _2057_
*2261 _2058_
*2262 _2059_
*2263 _2060_
*2264 _2061_
*2265 _2062_
*2266 _2063_
*2267 _2064_
*2268 _2065_
*2269 _2066_
*2270 _2067_
*2271 _2068_
*2272 _2069_
*2273 _2070_
*2274 _2071_
*2275 _2072_
*2276 _2073_
*2277 _2074_
*2278 _2075_
*2279 _2076_
*2280 _2077_
*2281 _2078_