*SPEF "ieee 1481-1999"
*DESIGN "wrapped_alu74181"
*DATE "11:11:11 Fri 11 11, 1111"
*VENDOR "OpenRCX"
*PROGRAM "Parallel Extraction"
*VERSION "1.0"
*DESIGN_FLOW "NAME_SCOPE LOCAL" "PIN_CAP NONE"
*DIVIDER /
*DELIMITER :
*BUS_DELIMITER []
*T_UNIT 1 NS
*C_UNIT 1 PF
*R_UNIT 1 OHM
*L_UNIT 1 HENRY

*NAME_MAP
*1 active
*2 io_in[0]
*3 io_in[10]
*4 io_in[11]
*5 io_in[12]
*6 io_in[13]
*7 io_in[14]
*8 io_in[15]
*9 io_in[16]
*10 io_in[17]
*11 io_in[18]
*12 io_in[19]
*13 io_in[1]
*14 io_in[20]
*15 io_in[21]
*16 io_in[22]
*17 io_in[23]
*18 io_in[24]
*19 io_in[25]
*20 io_in[26]
*21 io_in[27]
*22 io_in[28]
*23 io_in[29]
*24 io_in[2]
*25 io_in[30]
*26 io_in[31]
*27 io_in[32]
*28 io_in[33]
*29 io_in[34]
*30 io_in[35]
*31 io_in[36]
*32 io_in[37]
*33 io_in[3]
*34 io_in[4]
*35 io_in[5]
*36 io_in[6]
*37 io_in[7]
*38 io_in[8]
*39 io_in[9]
*40 io_oeb[0]
*41 io_oeb[10]
*42 io_oeb[11]
*43 io_oeb[12]
*44 io_oeb[13]
*45 io_oeb[14]
*46 io_oeb[15]
*47 io_oeb[16]
*48 io_oeb[17]
*49 io_oeb[18]
*50 io_oeb[19]
*51 io_oeb[1]
*52 io_oeb[20]
*53 io_oeb[21]
*54 io_oeb[22]
*55 io_oeb[23]
*56 io_oeb[24]
*57 io_oeb[25]
*58 io_oeb[26]
*59 io_oeb[27]
*60 io_oeb[28]
*61 io_oeb[29]
*62 io_oeb[2]
*63 io_oeb[30]
*64 io_oeb[31]
*65 io_oeb[32]
*66 io_oeb[33]
*67 io_oeb[34]
*68 io_oeb[35]
*69 io_oeb[36]
*70 io_oeb[37]
*71 io_oeb[3]
*72 io_oeb[4]
*73 io_oeb[5]
*74 io_oeb[6]
*75 io_oeb[7]
*76 io_oeb[8]
*77 io_oeb[9]
*78 io_out[0]
*79 io_out[10]
*80 io_out[11]
*81 io_out[12]
*82 io_out[13]
*83 io_out[14]
*84 io_out[15]
*85 io_out[16]
*86 io_out[17]
*87 io_out[18]
*88 io_out[19]
*89 io_out[1]
*90 io_out[20]
*91 io_out[21]
*92 io_out[22]
*93 io_out[23]
*94 io_out[24]
*95 io_out[25]
*96 io_out[26]
*97 io_out[27]
*98 io_out[28]
*99 io_out[29]
*100 io_out[2]
*101 io_out[30]
*102 io_out[31]
*103 io_out[32]
*104 io_out[33]
*105 io_out[34]
*106 io_out[35]
*107 io_out[36]
*108 io_out[37]
*109 io_out[3]
*110 io_out[4]
*111 io_out[5]
*112 io_out[6]
*113 io_out[7]
*114 io_out[8]
*115 io_out[9]
*116 la1_data_in[0]
*117 la1_data_in[10]
*118 la1_data_in[11]
*119 la1_data_in[12]
*120 la1_data_in[13]
*121 la1_data_in[14]
*122 la1_data_in[15]
*123 la1_data_in[16]
*124 la1_data_in[17]
*125 la1_data_in[18]
*126 la1_data_in[19]
*127 la1_data_in[1]
*128 la1_data_in[20]
*129 la1_data_in[21]
*130 la1_data_in[22]
*131 la1_data_in[23]
*132 la1_data_in[24]
*133 la1_data_in[25]
*134 la1_data_in[26]
*135 la1_data_in[27]
*136 la1_data_in[28]
*137 la1_data_in[29]
*138 la1_data_in[2]
*139 la1_data_in[30]
*140 la1_data_in[31]
*141 la1_data_in[3]
*142 la1_data_in[4]
*143 la1_data_in[5]
*144 la1_data_in[6]
*145 la1_data_in[7]
*146 la1_data_in[8]
*147 la1_data_in[9]
*148 la1_data_out[0]
*149 la1_data_out[10]
*150 la1_data_out[11]
*151 la1_data_out[12]
*152 la1_data_out[13]
*153 la1_data_out[14]
*154 la1_data_out[15]
*155 la1_data_out[16]
*156 la1_data_out[17]
*157 la1_data_out[18]
*158 la1_data_out[19]
*159 la1_data_out[1]
*160 la1_data_out[20]
*161 la1_data_out[21]
*162 la1_data_out[22]
*163 la1_data_out[23]
*164 la1_data_out[24]
*165 la1_data_out[25]
*166 la1_data_out[26]
*167 la1_data_out[27]
*168 la1_data_out[28]
*169 la1_data_out[29]
*170 la1_data_out[2]
*171 la1_data_out[30]
*172 la1_data_out[31]
*173 la1_data_out[3]
*174 la1_data_out[4]
*175 la1_data_out[5]
*176 la1_data_out[6]
*177 la1_data_out[7]
*178 la1_data_out[8]
*179 la1_data_out[9]
*180 la1_oenb[0]
*181 la1_oenb[10]
*182 la1_oenb[11]
*183 la1_oenb[12]
*184 la1_oenb[13]
*185 la1_oenb[14]
*186 la1_oenb[15]
*187 la1_oenb[16]
*188 la1_oenb[17]
*189 la1_oenb[18]
*190 la1_oenb[19]
*191 la1_oenb[1]
*192 la1_oenb[20]
*193 la1_oenb[21]
*194 la1_oenb[22]
*195 la1_oenb[23]
*196 la1_oenb[24]
*197 la1_oenb[25]
*198 la1_oenb[26]
*199 la1_oenb[27]
*200 la1_oenb[28]
*201 la1_oenb[29]
*202 la1_oenb[2]
*203 la1_oenb[30]
*204 la1_oenb[31]
*205 la1_oenb[3]
*206 la1_oenb[4]
*207 la1_oenb[5]
*208 la1_oenb[6]
*209 la1_oenb[7]
*210 la1_oenb[8]
*211 la1_oenb[9]
*214 wb_clk_i
*215 _000_
*216 _001_
*217 _002_
*218 _003_
*219 _004_
*220 _005_
*221 _006_
*222 _007_
*223 _008_
*224 _009_
*225 _010_
*226 _011_
*227 _012_
*228 _013_
*229 _014_
*230 _015_
*231 _016_
*232 _017_
*233 _018_
*234 _019_
*235 _020_
*236 _021_
*237 _022_
*238 _023_
*239 _024_
*240 _025_
*241 _026_
*242 _027_
*243 _028_
*244 _029_
*245 _030_
*246 _031_
*247 _032_
*248 _033_
*249 _034_
*250 _035_
*251 _036_
*252 _037_
*253 _038_
*254 _039_
*255 _040_
*256 _041_
*257 _042_
*258 _043_
*259 _044_
*260 _045_
*261 _046_
*262 _047_
*263 _048_
*264 _049_
*265 _050_
*266 _051_
*267 _052_
*268 _053_
*269 _054_
*270 _055_
*271 _056_
*272 _057_
*273 _058_
*274 _059_
*275 _060_
*276 _061_
*277 _062_
*278 _063_
*279 _064_
*280 _065_
*281 _066_
*282 _067_
*283 _068_
*284 _069_
*285 _070_
*286 _071_
*287 _072_
*288 _073_
*289 _074_
*290 _075_
*291 _076_
*292 _077_
*293 _078_
*294 _079_
*295 _080_
*296 _081_
*297 _082_
*298 _083_
*299 _084_
*300 _085_
*301 _086_
*302 _087_
*303 _088_
*304 _089_
*305 _090_
*306 _091_
*307 _092_
*308 _093_
*309 _094_
*310 _095_
*311 _096_
*312 _097_
*313 _098_
*314 _099_
*315 _100_
*316 _101_
*317 _102_
*318 _103_
*319 _104_
*320 _105_
*321 _106_
*322 _107_
*323 _108_
*324 _109_
*325 _110_
*326 _111_
*327 _112_
*328 _113_
*329 _114_
*330 _115_
*331 _116_
*332 _117_
*333 _118_
*334 _119_
*335 _120_
*336 _121_
*337 _122_
*338 _123_
*339 _124_
*340 _125_
*341 _126_
*342 _127_
*343 _128_
*344 _129_
*345 _130_
*346 _131_
*347 _132_
*348 _133_
*349 _134_
*350 _135_
*351 _136_
*352 _137_
*353 _138_
*354 _139_
*355 _140_
*356 _141_
*357 _142_
*358 _143_
*359 _144_
*360 _145_
*361 _146_
*362 _147_
*363 _148_
*364 _149_
*365 _150_
*366 _151_
*367 _152_
*368 _153_
*369 _154_
*370 _155_
*371 _156_
*372 _157_
*373 _158_
*374 _159_
*375 _160_
*376 _161_
*377 _162_
*378 _163_
*379 _164_
*380 _165_
*381 alu74181\.AEB
*382 alu74181\.CN4b
*383 alu74181\.F\[0\]
*384 alu74181\.F\[1\]
*385 alu74181\.F\[2\]
*386 alu74181\.F\[3\]
*387 alu74181\.X
*388 alu74181\.Y
*389 net1
*390 net10
*391 net100
*392 net101
*393 net102
*394 net103
*395 net104
*396 net105
*397 net106
*398 net107
*399 net108
*400 net109
*401 net11
*402 net110
*403 net111
*404 net112
*405 net113
*406 net114
*407 net115
*408 net12
*409 net13
*410 net14
*411 net15
*412 net16
*413 net17
*414 net18
*415 net19
*416 net2
*417 net20
*418 net21
*419 net22
*420 net23
*421 net24
*422 net25
*423 net26
*424 net27
*425 net28
*426 net29
*427 net3
*428 net30
*429 net31
*430 net32
*431 net33
*432 net34
*433 net35
*434 net36
*435 net37
*436 net38
*437 net39
*438 net4
*439 net40
*440 net41
*441 net42
*442 net43
*443 net44
*444 net45
*445 net46
*446 net47
*447 net48
*448 net49
*449 net5
*450 net50
*451 net51
*452 net52
*453 net53
*454 net54
*455 net55
*456 net56
*457 net57
*458 net58
*459 net59
*460 net6
*461 net60
*462 net61
*463 net62
*464 net63
*465 net64
*466 net65
*467 net66
*468 net67
*469 net68
*470 net69
*471 net7
*472 net70
*473 net71
*474 net72
*475 net73
*476 net74
*477 net75
*478 net76
*479 net77
*480 net78
*481 net79
*482 net8
*483 net80
*484 net81
*485 net82
*486 net83
*487 net84
*488 net85
*489 net86
*490 net87
*491 net88
*492 net89
*493 net9
*494 net90
*495 net91
*496 net92
*497 net93
*498 net94
*499 net95
*500 net96
*501 net97
*502 net98
*503 net99
*504 FILLER_0_104
*505 FILLER_0_113
*506 FILLER_0_125
*507 FILLER_0_137
*508 FILLER_0_141
*509 FILLER_0_147
*510 FILLER_0_159
*511 FILLER_0_164
*512 FILLER_0_172
*513 FILLER_0_179
*514 FILLER_0_187
*515 FILLER_0_192
*516 FILLER_0_197
*517 FILLER_0_219
*518 FILLER_0_223
*519 FILLER_0_228
*520 FILLER_0_24
*521 FILLER_0_240
*522 FILLER_0_253
*523 FILLER_0_265
*524 FILLER_0_277
*525 FILLER_0_281
*526 FILLER_0_29
*527 FILLER_0_293
*528 FILLER_0_305
*529 FILLER_0_309
*530 FILLER_0_321
*531 FILLER_0_328
*532 FILLER_0_33
*533 FILLER_0_337
*534 FILLER_0_360
*535 FILLER_0_386
*536 FILLER_0_396
*537 FILLER_0_40
*538 FILLER_0_404
*539 FILLER_0_46
*540 FILLER_0_50
*541 FILLER_0_60
*542 FILLER_0_72
*543 FILLER_0_77
*544 FILLER_0_83
*545 FILLER_0_85
*546 FILLER_0_93
*547 FILLER_0_97
*548 FILLER_10_100
*549 FILLER_10_112
*550 FILLER_10_124
*551 FILLER_10_136
*552 FILLER_10_141
*553 FILLER_10_153
*554 FILLER_10_165
*555 FILLER_10_177
*556 FILLER_10_189
*557 FILLER_10_195
*558 FILLER_10_197
*559 FILLER_10_209
*560 FILLER_10_231
*561 FILLER_10_24
*562 FILLER_10_243
*563 FILLER_10_251
*564 FILLER_10_253
*565 FILLER_10_265
*566 FILLER_10_277
*567 FILLER_10_289
*568 FILLER_10_29
*569 FILLER_10_301
*570 FILLER_10_307
*571 FILLER_10_309
*572 FILLER_10_321
*573 FILLER_10_333
*574 FILLER_10_345
*575 FILLER_10_357
*576 FILLER_10_363
*577 FILLER_10_365
*578 FILLER_10_377
*579 FILLER_10_389
*580 FILLER_10_401
*581 FILLER_10_41
*582 FILLER_10_53
*583 FILLER_10_65
*584 FILLER_10_73
*585 FILLER_10_77
*586 FILLER_10_83
*587 FILLER_10_88
*588 FILLER_11_107
*589 FILLER_11_11
*590 FILLER_11_111
*591 FILLER_11_113
*592 FILLER_11_125
*593 FILLER_11_137
*594 FILLER_11_149
*595 FILLER_11_161
*596 FILLER_11_167
*597 FILLER_11_169
*598 FILLER_11_18
*599 FILLER_11_181
*600 FILLER_11_193
*601 FILLER_11_208
*602 FILLER_11_220
*603 FILLER_11_225
*604 FILLER_11_237
*605 FILLER_11_249
*606 FILLER_11_25
*607 FILLER_11_261
*608 FILLER_11_273
*609 FILLER_11_279
*610 FILLER_11_281
*611 FILLER_11_293
*612 FILLER_11_3
*613 FILLER_11_305
*614 FILLER_11_317
*615 FILLER_11_329
*616 FILLER_11_335
*617 FILLER_11_337
*618 FILLER_11_349
*619 FILLER_11_361
*620 FILLER_11_37
*621 FILLER_11_373
*622 FILLER_11_385
*623 FILLER_11_391
*624 FILLER_11_393
*625 FILLER_11_400
*626 FILLER_11_406
*627 FILLER_11_49
*628 FILLER_11_55
*629 FILLER_11_57
*630 FILLER_11_69
*631 FILLER_11_7
*632 FILLER_11_73
*633 FILLER_11_95
*634 FILLER_12_109
*635 FILLER_12_121
*636 FILLER_12_133
*637 FILLER_12_139
*638 FILLER_12_141
*639 FILLER_12_153
*640 FILLER_12_165
*641 FILLER_12_177
*642 FILLER_12_189
*643 FILLER_12_195
*644 FILLER_12_197
*645 FILLER_12_209
*646 FILLER_12_221
*647 FILLER_12_233
*648 FILLER_12_24
*649 FILLER_12_245
*650 FILLER_12_251
*651 FILLER_12_253
*652 FILLER_12_265
*653 FILLER_12_277
*654 FILLER_12_289
*655 FILLER_12_29
*656 FILLER_12_301
*657 FILLER_12_307
*658 FILLER_12_309
*659 FILLER_12_321
*660 FILLER_12_333
*661 FILLER_12_345
*662 FILLER_12_357
*663 FILLER_12_363
*664 FILLER_12_365
*665 FILLER_12_377
*666 FILLER_12_381
*667 FILLER_12_403
*668 FILLER_12_41
*669 FILLER_12_53
*670 FILLER_12_65
*671 FILLER_12_77
*672 FILLER_12_83
*673 FILLER_12_85
*674 FILLER_12_97
*675 FILLER_13_105
*676 FILLER_13_111
*677 FILLER_13_113
*678 FILLER_13_125
*679 FILLER_13_137
*680 FILLER_13_149
*681 FILLER_13_161
*682 FILLER_13_167
*683 FILLER_13_169
*684 FILLER_13_181
*685 FILLER_13_193
*686 FILLER_13_20
*687 FILLER_13_205
*688 FILLER_13_217
*689 FILLER_13_223
*690 FILLER_13_225
*691 FILLER_13_237
*692 FILLER_13_249
*693 FILLER_13_261
*694 FILLER_13_273
*695 FILLER_13_279
*696 FILLER_13_281
*697 FILLER_13_293
*698 FILLER_13_3
*699 FILLER_13_305
*700 FILLER_13_317
*701 FILLER_13_32
*702 FILLER_13_329
*703 FILLER_13_335
*704 FILLER_13_337
*705 FILLER_13_349
*706 FILLER_13_361
*707 FILLER_13_373
*708 FILLER_13_388
*709 FILLER_13_393
*710 FILLER_13_397
*711 FILLER_13_405
*712 FILLER_13_44
*713 FILLER_13_57
*714 FILLER_13_69
*715 FILLER_13_8
*716 FILLER_13_81
*717 FILLER_13_93
*718 FILLER_14_109
*719 FILLER_14_121
*720 FILLER_14_133
*721 FILLER_14_139
*722 FILLER_14_141
*723 FILLER_14_15
*724 FILLER_14_153
*725 FILLER_14_165
*726 FILLER_14_177
*727 FILLER_14_189
*728 FILLER_14_195
*729 FILLER_14_197
*730 FILLER_14_209
*731 FILLER_14_221
*732 FILLER_14_233
*733 FILLER_14_245
*734 FILLER_14_251
*735 FILLER_14_253
*736 FILLER_14_265
*737 FILLER_14_27
*738 FILLER_14_277
*739 FILLER_14_289
*740 FILLER_14_29
*741 FILLER_14_3
*742 FILLER_14_301
*743 FILLER_14_307
*744 FILLER_14_309
*745 FILLER_14_321
*746 FILLER_14_333
*747 FILLER_14_345
*748 FILLER_14_357
*749 FILLER_14_363
*750 FILLER_14_365
*751 FILLER_14_377
*752 FILLER_14_381
*753 FILLER_14_403
*754 FILLER_14_41
*755 FILLER_14_48
*756 FILLER_14_73
*757 FILLER_14_81
*758 FILLER_14_85
*759 FILLER_14_97
*760 FILLER_15_108
*761 FILLER_15_113
*762 FILLER_15_125
*763 FILLER_15_137
*764 FILLER_15_149
*765 FILLER_15_161
*766 FILLER_15_167
*767 FILLER_15_169
*768 FILLER_15_181
*769 FILLER_15_193
*770 FILLER_15_205
*771 FILLER_15_21
*772 FILLER_15_217
*773 FILLER_15_223
*774 FILLER_15_225
*775 FILLER_15_237
*776 FILLER_15_249
*777 FILLER_15_261
*778 FILLER_15_273
*779 FILLER_15_279
*780 FILLER_15_281
*781 FILLER_15_293
*782 FILLER_15_3
*783 FILLER_15_305
*784 FILLER_15_317
*785 FILLER_15_329
*786 FILLER_15_33
*787 FILLER_15_335
*788 FILLER_15_337
*789 FILLER_15_349
*790 FILLER_15_361
*791 FILLER_15_373
*792 FILLER_15_388
*793 FILLER_15_393
*794 FILLER_15_398
*795 FILLER_15_406
*796 FILLER_15_45
*797 FILLER_15_53
*798 FILLER_15_60
*799 FILLER_15_72
*800 FILLER_15_84
*801 FILLER_15_9
*802 FILLER_15_96
*803 FILLER_16_109
*804 FILLER_16_12
*805 FILLER_16_121
*806 FILLER_16_133
*807 FILLER_16_139
*808 FILLER_16_141
*809 FILLER_16_153
*810 FILLER_16_165
*811 FILLER_16_177
*812 FILLER_16_189
*813 FILLER_16_195
*814 FILLER_16_197
*815 FILLER_16_210
*816 FILLER_16_222
*817 FILLER_16_234
*818 FILLER_16_24
*819 FILLER_16_246
*820 FILLER_16_253
*821 FILLER_16_265
*822 FILLER_16_277
*823 FILLER_16_289
*824 FILLER_16_29
*825 FILLER_16_3
*826 FILLER_16_301
*827 FILLER_16_307
*828 FILLER_16_309
*829 FILLER_16_321
*830 FILLER_16_333
*831 FILLER_16_345
*832 FILLER_16_357
*833 FILLER_16_363
*834 FILLER_16_365
*835 FILLER_16_373
*836 FILLER_16_378
*837 FILLER_16_403
*838 FILLER_16_41
*839 FILLER_16_53
*840 FILLER_16_65
*841 FILLER_16_77
*842 FILLER_16_83
*843 FILLER_16_85
*844 FILLER_16_97
*845 FILLER_17_105
*846 FILLER_17_111
*847 FILLER_17_113
*848 FILLER_17_125
*849 FILLER_17_137
*850 FILLER_17_149
*851 FILLER_17_161
*852 FILLER_17_167
*853 FILLER_17_169
*854 FILLER_17_181
*855 FILLER_17_193
*856 FILLER_17_205
*857 FILLER_17_217
*858 FILLER_17_223
*859 FILLER_17_225
*860 FILLER_17_237
*861 FILLER_17_249
*862 FILLER_17_261
*863 FILLER_17_27
*864 FILLER_17_273
*865 FILLER_17_279
*866 FILLER_17_281
*867 FILLER_17_293
*868 FILLER_17_3
*869 FILLER_17_305
*870 FILLER_17_317
*871 FILLER_17_329
*872 FILLER_17_335
*873 FILLER_17_337
*874 FILLER_17_349
*875 FILLER_17_361
*876 FILLER_17_373
*877 FILLER_17_388
*878 FILLER_17_39
*879 FILLER_17_393
*880 FILLER_17_399
*881 FILLER_17_51
*882 FILLER_17_55
*883 FILLER_17_57
*884 FILLER_17_69
*885 FILLER_17_81
*886 FILLER_17_93
*887 FILLER_18_109
*888 FILLER_18_121
*889 FILLER_18_133
*890 FILLER_18_139
*891 FILLER_18_141
*892 FILLER_18_153
*893 FILLER_18_165
*894 FILLER_18_177
*895 FILLER_18_189
*896 FILLER_18_195
*897 FILLER_18_197
*898 FILLER_18_209
*899 FILLER_18_221
*900 FILLER_18_233
*901 FILLER_18_24
*902 FILLER_18_245
*903 FILLER_18_251
*904 FILLER_18_253
*905 FILLER_18_265
*906 FILLER_18_277
*907 FILLER_18_289
*908 FILLER_18_29
*909 FILLER_18_301
*910 FILLER_18_307
*911 FILLER_18_309
*912 FILLER_18_321
*913 FILLER_18_333
*914 FILLER_18_345
*915 FILLER_18_357
*916 FILLER_18_363
*917 FILLER_18_365
*918 FILLER_18_377
*919 FILLER_18_381
*920 FILLER_18_403
*921 FILLER_18_41
*922 FILLER_18_53
*923 FILLER_18_65
*924 FILLER_18_77
*925 FILLER_18_83
*926 FILLER_18_85
*927 FILLER_18_97
*928 FILLER_19_105
*929 FILLER_19_11
*930 FILLER_19_111
*931 FILLER_19_113
*932 FILLER_19_125
*933 FILLER_19_137
*934 FILLER_19_149
*935 FILLER_19_161
*936 FILLER_19_167
*937 FILLER_19_169
*938 FILLER_19_18
*939 FILLER_19_181
*940 FILLER_19_193
*941 FILLER_19_205
*942 FILLER_19_217
*943 FILLER_19_223
*944 FILLER_19_225
*945 FILLER_19_237
*946 FILLER_19_249
*947 FILLER_19_261
*948 FILLER_19_273
*949 FILLER_19_279
*950 FILLER_19_281
*951 FILLER_19_293
*952 FILLER_19_3
*953 FILLER_19_30
*954 FILLER_19_305
*955 FILLER_19_317
*956 FILLER_19_329
*957 FILLER_19_335
*958 FILLER_19_337
*959 FILLER_19_349
*960 FILLER_19_361
*961 FILLER_19_373
*962 FILLER_19_385
*963 FILLER_19_391
*964 FILLER_19_393
*965 FILLER_19_398
*966 FILLER_19_406
*967 FILLER_19_42
*968 FILLER_19_54
*969 FILLER_19_57
*970 FILLER_19_69
*971 FILLER_19_7
*972 FILLER_19_81
*973 FILLER_19_93
*974 FILLER_1_103
*975 FILLER_1_111
*976 FILLER_1_12
*977 FILLER_1_134
*978 FILLER_1_142
*979 FILLER_1_164
*980 FILLER_1_19
*981 FILLER_1_190
*982 FILLER_1_215
*983 FILLER_1_223
*984 FILLER_1_23
*985 FILLER_1_246
*986 FILLER_1_258
*987 FILLER_1_270
*988 FILLER_1_278
*989 FILLER_1_281
*990 FILLER_1_293
*991 FILLER_1_3
*992 FILLER_1_305
*993 FILLER_1_317
*994 FILLER_1_321
*995 FILLER_1_325
*996 FILLER_1_332
*997 FILLER_1_337
*998 FILLER_1_341
*999 FILLER_1_363
*1000 FILLER_1_388
*1001 FILLER_1_393
*1002 FILLER_1_403
*1003 FILLER_1_45
*1004 FILLER_1_52
*1005 FILLER_1_78
*1006 FILLER_20_109
*1007 FILLER_20_121
*1008 FILLER_20_133
*1009 FILLER_20_139
*1010 FILLER_20_14
*1011 FILLER_20_141
*1012 FILLER_20_153
*1013 FILLER_20_165
*1014 FILLER_20_177
*1015 FILLER_20_18
*1016 FILLER_20_189
*1017 FILLER_20_195
*1018 FILLER_20_197
*1019 FILLER_20_209
*1020 FILLER_20_221
*1021 FILLER_20_233
*1022 FILLER_20_245
*1023 FILLER_20_251
*1024 FILLER_20_253
*1025 FILLER_20_26
*1026 FILLER_20_265
*1027 FILLER_20_277
*1028 FILLER_20_289
*1029 FILLER_20_29
*1030 FILLER_20_3
*1031 FILLER_20_301
*1032 FILLER_20_307
*1033 FILLER_20_309
*1034 FILLER_20_321
*1035 FILLER_20_333
*1036 FILLER_20_345
*1037 FILLER_20_357
*1038 FILLER_20_363
*1039 FILLER_20_365
*1040 FILLER_20_377
*1041 FILLER_20_381
*1042 FILLER_20_403
*1043 FILLER_20_41
*1044 FILLER_20_53
*1045 FILLER_20_65
*1046 FILLER_20_77
*1047 FILLER_20_8
*1048 FILLER_20_83
*1049 FILLER_20_85
*1050 FILLER_20_97
*1051 FILLER_21_105
*1052 FILLER_21_111
*1053 FILLER_21_113
*1054 FILLER_21_125
*1055 FILLER_21_137
*1056 FILLER_21_149
*1057 FILLER_21_161
*1058 FILLER_21_167
*1059 FILLER_21_169
*1060 FILLER_21_181
*1061 FILLER_21_193
*1062 FILLER_21_197
*1063 FILLER_21_201
*1064 FILLER_21_213
*1065 FILLER_21_221
*1066 FILLER_21_225
*1067 FILLER_21_237
*1068 FILLER_21_249
*1069 FILLER_21_261
*1070 FILLER_21_273
*1071 FILLER_21_279
*1072 FILLER_21_281
*1073 FILLER_21_29
*1074 FILLER_21_293
*1075 FILLER_21_3
*1076 FILLER_21_305
*1077 FILLER_21_317
*1078 FILLER_21_329
*1079 FILLER_21_335
*1080 FILLER_21_337
*1081 FILLER_21_349
*1082 FILLER_21_361
*1083 FILLER_21_373
*1084 FILLER_21_385
*1085 FILLER_21_391
*1086 FILLER_21_393
*1087 FILLER_21_400
*1088 FILLER_21_406
*1089 FILLER_21_41
*1090 FILLER_21_53
*1091 FILLER_21_57
*1092 FILLER_21_69
*1093 FILLER_21_7
*1094 FILLER_21_81
*1095 FILLER_21_93
*1096 FILLER_22_109
*1097 FILLER_22_121
*1098 FILLER_22_133
*1099 FILLER_22_139
*1100 FILLER_22_141
*1101 FILLER_22_153
*1102 FILLER_22_165
*1103 FILLER_22_177
*1104 FILLER_22_189
*1105 FILLER_22_195
*1106 FILLER_22_197
*1107 FILLER_22_224
*1108 FILLER_22_236
*1109 FILLER_22_24
*1110 FILLER_22_248
*1111 FILLER_22_253
*1112 FILLER_22_265
*1113 FILLER_22_277
*1114 FILLER_22_289
*1115 FILLER_22_301
*1116 FILLER_22_307
*1117 FILLER_22_309
*1118 FILLER_22_32
*1119 FILLER_22_321
*1120 FILLER_22_333
*1121 FILLER_22_345
*1122 FILLER_22_357
*1123 FILLER_22_363
*1124 FILLER_22_365
*1125 FILLER_22_377
*1126 FILLER_22_381
*1127 FILLER_22_403
*1128 FILLER_22_44
*1129 FILLER_22_56
*1130 FILLER_22_68
*1131 FILLER_22_80
*1132 FILLER_22_85
*1133 FILLER_22_97
*1134 FILLER_23_105
*1135 FILLER_23_11
*1136 FILLER_23_111
*1137 FILLER_23_113
*1138 FILLER_23_125
*1139 FILLER_23_137
*1140 FILLER_23_149
*1141 FILLER_23_15
*1142 FILLER_23_161
*1143 FILLER_23_167
*1144 FILLER_23_169
*1145 FILLER_23_181
*1146 FILLER_23_193
*1147 FILLER_23_201
*1148 FILLER_23_206
*1149 FILLER_23_218
*1150 FILLER_23_225
*1151 FILLER_23_237
*1152 FILLER_23_249
*1153 FILLER_23_261
*1154 FILLER_23_273
*1155 FILLER_23_279
*1156 FILLER_23_281
*1157 FILLER_23_293
*1158 FILLER_23_3
*1159 FILLER_23_305
*1160 FILLER_23_317
*1161 FILLER_23_329
*1162 FILLER_23_335
*1163 FILLER_23_337
*1164 FILLER_23_349
*1165 FILLER_23_361
*1166 FILLER_23_37
*1167 FILLER_23_373
*1168 FILLER_23_385
*1169 FILLER_23_391
*1170 FILLER_23_393
*1171 FILLER_23_398
*1172 FILLER_23_406
*1173 FILLER_23_49
*1174 FILLER_23_55
*1175 FILLER_23_57
*1176 FILLER_23_69
*1177 FILLER_23_7
*1178 FILLER_23_81
*1179 FILLER_23_93
*1180 FILLER_24_109
*1181 FILLER_24_121
*1182 FILLER_24_133
*1183 FILLER_24_139
*1184 FILLER_24_141
*1185 FILLER_24_15
*1186 FILLER_24_153
*1187 FILLER_24_165
*1188 FILLER_24_177
*1189 FILLER_24_189
*1190 FILLER_24_19
*1191 FILLER_24_195
*1192 FILLER_24_197
*1193 FILLER_24_209
*1194 FILLER_24_221
*1195 FILLER_24_233
*1196 FILLER_24_245
*1197 FILLER_24_251
*1198 FILLER_24_253
*1199 FILLER_24_265
*1200 FILLER_24_27
*1201 FILLER_24_277
*1202 FILLER_24_289
*1203 FILLER_24_301
*1204 FILLER_24_307
*1205 FILLER_24_309
*1206 FILLER_24_32
*1207 FILLER_24_321
*1208 FILLER_24_333
*1209 FILLER_24_345
*1210 FILLER_24_357
*1211 FILLER_24_363
*1212 FILLER_24_365
*1213 FILLER_24_377
*1214 FILLER_24_389
*1215 FILLER_24_400
*1216 FILLER_24_406
*1217 FILLER_24_44
*1218 FILLER_24_56
*1219 FILLER_24_68
*1220 FILLER_24_7
*1221 FILLER_24_80
*1222 FILLER_24_85
*1223 FILLER_24_97
*1224 FILLER_25_105
*1225 FILLER_25_111
*1226 FILLER_25_113
*1227 FILLER_25_125
*1228 FILLER_25_137
*1229 FILLER_25_149
*1230 FILLER_25_161
*1231 FILLER_25_167
*1232 FILLER_25_169
*1233 FILLER_25_181
*1234 FILLER_25_193
*1235 FILLER_25_205
*1236 FILLER_25_217
*1237 FILLER_25_223
*1238 FILLER_25_225
*1239 FILLER_25_237
*1240 FILLER_25_249
*1241 FILLER_25_26
*1242 FILLER_25_261
*1243 FILLER_25_273
*1244 FILLER_25_279
*1245 FILLER_25_281
*1246 FILLER_25_293
*1247 FILLER_25_3
*1248 FILLER_25_305
*1249 FILLER_25_317
*1250 FILLER_25_329
*1251 FILLER_25_335
*1252 FILLER_25_337
*1253 FILLER_25_349
*1254 FILLER_25_361
*1255 FILLER_25_373
*1256 FILLER_25_385
*1257 FILLER_25_391
*1258 FILLER_25_393
*1259 FILLER_25_398
*1260 FILLER_25_406
*1261 FILLER_25_51
*1262 FILLER_25_55
*1263 FILLER_25_57
*1264 FILLER_25_69
*1265 FILLER_25_81
*1266 FILLER_25_93
*1267 FILLER_26_109
*1268 FILLER_26_12
*1269 FILLER_26_121
*1270 FILLER_26_133
*1271 FILLER_26_139
*1272 FILLER_26_141
*1273 FILLER_26_153
*1274 FILLER_26_165
*1275 FILLER_26_177
*1276 FILLER_26_189
*1277 FILLER_26_19
*1278 FILLER_26_195
*1279 FILLER_26_197
*1280 FILLER_26_209
*1281 FILLER_26_221
*1282 FILLER_26_233
*1283 FILLER_26_245
*1284 FILLER_26_251
*1285 FILLER_26_253
*1286 FILLER_26_265
*1287 FILLER_26_27
*1288 FILLER_26_277
*1289 FILLER_26_289
*1290 FILLER_26_3
*1291 FILLER_26_301
*1292 FILLER_26_307
*1293 FILLER_26_312
*1294 FILLER_26_32
*1295 FILLER_26_324
*1296 FILLER_26_336
*1297 FILLER_26_348
*1298 FILLER_26_360
*1299 FILLER_26_365
*1300 FILLER_26_377
*1301 FILLER_26_381
*1302 FILLER_26_403
*1303 FILLER_26_44
*1304 FILLER_26_56
*1305 FILLER_26_68
*1306 FILLER_26_80
*1307 FILLER_26_85
*1308 FILLER_26_97
*1309 FILLER_27_105
*1310 FILLER_27_11
*1311 FILLER_27_111
*1312 FILLER_27_113
*1313 FILLER_27_125
*1314 FILLER_27_137
*1315 FILLER_27_149
*1316 FILLER_27_161
*1317 FILLER_27_167
*1318 FILLER_27_169
*1319 FILLER_27_181
*1320 FILLER_27_193
*1321 FILLER_27_205
*1322 FILLER_27_217
*1323 FILLER_27_223
*1324 FILLER_27_225
*1325 FILLER_27_23
*1326 FILLER_27_237
*1327 FILLER_27_249
*1328 FILLER_27_261
*1329 FILLER_27_273
*1330 FILLER_27_279
*1331 FILLER_27_28
*1332 FILLER_27_281
*1333 FILLER_27_293
*1334 FILLER_27_298
*1335 FILLER_27_3
*1336 FILLER_27_323
*1337 FILLER_27_335
*1338 FILLER_27_337
*1339 FILLER_27_349
*1340 FILLER_27_361
*1341 FILLER_27_373
*1342 FILLER_27_385
*1343 FILLER_27_391
*1344 FILLER_27_393
*1345 FILLER_27_40
*1346 FILLER_27_400
*1347 FILLER_27_406
*1348 FILLER_27_52
*1349 FILLER_27_57
*1350 FILLER_27_69
*1351 FILLER_27_7
*1352 FILLER_27_81
*1353 FILLER_27_93
*1354 FILLER_28_109
*1355 FILLER_28_121
*1356 FILLER_28_133
*1357 FILLER_28_139
*1358 FILLER_28_141
*1359 FILLER_28_153
*1360 FILLER_28_165
*1361 FILLER_28_177
*1362 FILLER_28_189
*1363 FILLER_28_195
*1364 FILLER_28_197
*1365 FILLER_28_209
*1366 FILLER_28_221
*1367 FILLER_28_233
*1368 FILLER_28_24
*1369 FILLER_28_245
*1370 FILLER_28_251
*1371 FILLER_28_253
*1372 FILLER_28_265
*1373 FILLER_28_277
*1374 FILLER_28_281
*1375 FILLER_28_29
*1376 FILLER_28_303
*1377 FILLER_28_307
*1378 FILLER_28_309
*1379 FILLER_28_321
*1380 FILLER_28_333
*1381 FILLER_28_345
*1382 FILLER_28_357
*1383 FILLER_28_363
*1384 FILLER_28_365
*1385 FILLER_28_377
*1386 FILLER_28_389
*1387 FILLER_28_401
*1388 FILLER_28_41
*1389 FILLER_28_53
*1390 FILLER_28_65
*1391 FILLER_28_77
*1392 FILLER_28_83
*1393 FILLER_28_85
*1394 FILLER_28_97
*1395 FILLER_29_105
*1396 FILLER_29_111
*1397 FILLER_29_113
*1398 FILLER_29_125
*1399 FILLER_29_137
*1400 FILLER_29_149
*1401 FILLER_29_161
*1402 FILLER_29_167
*1403 FILLER_29_169
*1404 FILLER_29_181
*1405 FILLER_29_193
*1406 FILLER_29_20
*1407 FILLER_29_205
*1408 FILLER_29_217
*1409 FILLER_29_223
*1410 FILLER_29_225
*1411 FILLER_29_232
*1412 FILLER_29_244
*1413 FILLER_29_256
*1414 FILLER_29_268
*1415 FILLER_29_284
*1416 FILLER_29_291
*1417 FILLER_29_3
*1418 FILLER_29_303
*1419 FILLER_29_315
*1420 FILLER_29_32
*1421 FILLER_29_327
*1422 FILLER_29_335
*1423 FILLER_29_337
*1424 FILLER_29_349
*1425 FILLER_29_361
*1426 FILLER_29_373
*1427 FILLER_29_385
*1428 FILLER_29_391
*1429 FILLER_29_393
*1430 FILLER_29_405
*1431 FILLER_29_44
*1432 FILLER_29_57
*1433 FILLER_29_69
*1434 FILLER_29_8
*1435 FILLER_29_81
*1436 FILLER_29_93
*1437 FILLER_2_108
*1438 FILLER_2_120
*1439 FILLER_2_132
*1440 FILLER_2_141
*1441 FILLER_2_147
*1442 FILLER_2_155
*1443 FILLER_2_159
*1444 FILLER_2_184
*1445 FILLER_2_191
*1446 FILLER_2_195
*1447 FILLER_2_200
*1448 FILLER_2_208
*1449 FILLER_2_233
*1450 FILLER_2_24
*1451 FILLER_2_245
*1452 FILLER_2_251
*1453 FILLER_2_253
*1454 FILLER_2_265
*1455 FILLER_2_277
*1456 FILLER_2_289
*1457 FILLER_2_301
*1458 FILLER_2_307
*1459 FILLER_2_309
*1460 FILLER_2_32
*1461 FILLER_2_321
*1462 FILLER_2_346
*1463 FILLER_2_353
*1464 FILLER_2_360
*1465 FILLER_2_365
*1466 FILLER_2_375
*1467 FILLER_2_402
*1468 FILLER_2_406
*1469 FILLER_2_59
*1470 FILLER_2_71
*1471 FILLER_2_77
*1472 FILLER_2_83
*1473 FILLER_2_85
*1474 FILLER_30_109
*1475 FILLER_30_121
*1476 FILLER_30_133
*1477 FILLER_30_139
*1478 FILLER_30_141
*1479 FILLER_30_153
*1480 FILLER_30_165
*1481 FILLER_30_177
*1482 FILLER_30_189
*1483 FILLER_30_195
*1484 FILLER_30_197
*1485 FILLER_30_209
*1486 FILLER_30_21
*1487 FILLER_30_216
*1488 FILLER_30_241
*1489 FILLER_30_249
*1490 FILLER_30_253
*1491 FILLER_30_265
*1492 FILLER_30_27
*1493 FILLER_30_277
*1494 FILLER_30_289
*1495 FILLER_30_29
*1496 FILLER_30_3
*1497 FILLER_30_301
*1498 FILLER_30_307
*1499 FILLER_30_309
*1500 FILLER_30_321
*1501 FILLER_30_333
*1502 FILLER_30_345
*1503 FILLER_30_357
*1504 FILLER_30_363
*1505 FILLER_30_365
*1506 FILLER_30_377
*1507 FILLER_30_389
*1508 FILLER_30_401
*1509 FILLER_30_41
*1510 FILLER_30_53
*1511 FILLER_30_65
*1512 FILLER_30_77
*1513 FILLER_30_83
*1514 FILLER_30_85
*1515 FILLER_30_9
*1516 FILLER_30_97
*1517 FILLER_31_105
*1518 FILLER_31_111
*1519 FILLER_31_113
*1520 FILLER_31_125
*1521 FILLER_31_137
*1522 FILLER_31_149
*1523 FILLER_31_161
*1524 FILLER_31_167
*1525 FILLER_31_169
*1526 FILLER_31_181
*1527 FILLER_31_193
*1528 FILLER_31_205
*1529 FILLER_31_217
*1530 FILLER_31_223
*1531 FILLER_31_225
*1532 FILLER_31_249
*1533 FILLER_31_256
*1534 FILLER_31_268
*1535 FILLER_31_27
*1536 FILLER_31_281
*1537 FILLER_31_293
*1538 FILLER_31_3
*1539 FILLER_31_305
*1540 FILLER_31_317
*1541 FILLER_31_332
*1542 FILLER_31_358
*1543 FILLER_31_370
*1544 FILLER_31_382
*1545 FILLER_31_39
*1546 FILLER_31_390
*1547 FILLER_31_393
*1548 FILLER_31_400
*1549 FILLER_31_406
*1550 FILLER_31_51
*1551 FILLER_31_55
*1552 FILLER_31_57
*1553 FILLER_31_69
*1554 FILLER_31_81
*1555 FILLER_31_93
*1556 FILLER_32_109
*1557 FILLER_32_121
*1558 FILLER_32_133
*1559 FILLER_32_139
*1560 FILLER_32_141
*1561 FILLER_32_153
*1562 FILLER_32_165
*1563 FILLER_32_177
*1564 FILLER_32_189
*1565 FILLER_32_195
*1566 FILLER_32_197
*1567 FILLER_32_209
*1568 FILLER_32_217
*1569 FILLER_32_223
*1570 FILLER_32_24
*1571 FILLER_32_248
*1572 FILLER_32_274
*1573 FILLER_32_286
*1574 FILLER_32_29
*1575 FILLER_32_298
*1576 FILLER_32_306
*1577 FILLER_32_309
*1578 FILLER_32_321
*1579 FILLER_32_336
*1580 FILLER_32_348
*1581 FILLER_32_360
*1582 FILLER_32_365
*1583 FILLER_32_377
*1584 FILLER_32_381
*1585 FILLER_32_403
*1586 FILLER_32_41
*1587 FILLER_32_53
*1588 FILLER_32_65
*1589 FILLER_32_77
*1590 FILLER_32_83
*1591 FILLER_32_85
*1592 FILLER_32_97
*1593 FILLER_33_105
*1594 FILLER_33_111
*1595 FILLER_33_113
*1596 FILLER_33_125
*1597 FILLER_33_13
*1598 FILLER_33_137
*1599 FILLER_33_149
*1600 FILLER_33_161
*1601 FILLER_33_167
*1602 FILLER_33_169
*1603 FILLER_33_181
*1604 FILLER_33_193
*1605 FILLER_33_20
*1606 FILLER_33_205
*1607 FILLER_33_217
*1608 FILLER_33_223
*1609 FILLER_33_225
*1610 FILLER_33_230
*1611 FILLER_33_243
*1612 FILLER_33_270
*1613 FILLER_33_278
*1614 FILLER_33_281
*1615 FILLER_33_293
*1616 FILLER_33_305
*1617 FILLER_33_317
*1618 FILLER_33_32
*1619 FILLER_33_329
*1620 FILLER_33_335
*1621 FILLER_33_337
*1622 FILLER_33_349
*1623 FILLER_33_361
*1624 FILLER_33_373
*1625 FILLER_33_385
*1626 FILLER_33_391
*1627 FILLER_33_393
*1628 FILLER_33_398
*1629 FILLER_33_406
*1630 FILLER_33_44
*1631 FILLER_33_57
*1632 FILLER_33_6
*1633 FILLER_33_69
*1634 FILLER_33_81
*1635 FILLER_33_93
*1636 FILLER_34_109
*1637 FILLER_34_121
*1638 FILLER_34_133
*1639 FILLER_34_139
*1640 FILLER_34_141
*1641 FILLER_34_15
*1642 FILLER_34_153
*1643 FILLER_34_165
*1644 FILLER_34_177
*1645 FILLER_34_189
*1646 FILLER_34_195
*1647 FILLER_34_197
*1648 FILLER_34_226
*1649 FILLER_34_237
*1650 FILLER_34_249
*1651 FILLER_34_256
*1652 FILLER_34_268
*1653 FILLER_34_27
*1654 FILLER_34_280
*1655 FILLER_34_29
*1656 FILLER_34_292
*1657 FILLER_34_3
*1658 FILLER_34_304
*1659 FILLER_34_309
*1660 FILLER_34_321
*1661 FILLER_34_333
*1662 FILLER_34_345
*1663 FILLER_34_357
*1664 FILLER_34_363
*1665 FILLER_34_365
*1666 FILLER_34_377
*1667 FILLER_34_381
*1668 FILLER_34_403
*1669 FILLER_34_41
*1670 FILLER_34_53
*1671 FILLER_34_65
*1672 FILLER_34_77
*1673 FILLER_34_83
*1674 FILLER_34_85
*1675 FILLER_34_97
*1676 FILLER_35_105
*1677 FILLER_35_111
*1678 FILLER_35_113
*1679 FILLER_35_125
*1680 FILLER_35_137
*1681 FILLER_35_149
*1682 FILLER_35_15
*1683 FILLER_35_161
*1684 FILLER_35_167
*1685 FILLER_35_169
*1686 FILLER_35_181
*1687 FILLER_35_193
*1688 FILLER_35_201
*1689 FILLER_35_205
*1690 FILLER_35_217